*****
 OpenBabel04182602263D

228235  0  0  1  0  0  0  0  0999 V2000
    3.0445   32.6371    2.2715 C   0  0  0  0  0  0  0  0  0  0  0  0
    2.9129   31.6890    3.2782 C   0  0  0  0  0  0  0  0  0  0  0  0
    2.3019   30.4714    3.0054 C   0  0  0  0  0  0  0  0  0  0  0  0
    1.8659   30.1201    1.6892 C   0  0  0  0  0  0  0  0  0  0  0  0
    2.0598   31.0607    0.6177 C   0  0  0  0  0  0  0  0  0  0  0  0
    2.5798   32.3331    0.9775 C   0  0  0  0  0  0  0  0  0  0  0  0
    1.5343   30.8494   -0.8395 C   0  0  2  0  0  0  0  0  0  0  0  0
    1.6956   29.4955   -1.4416 N   0  0  0  0  0  0  0  0  0  0  0  0
    2.6660   29.1946   -2.3972 C   0  0  0  0  0  0  0  0  0  0  0  0
    3.3878   30.0302   -2.9355 O   0  0  0  0  0  0  0  0  0  0  0  0
    2.7116   27.7163   -2.8652 C   0  0  1  0  0  0  0  0  0  0  0  0
    2.1684   26.7593   -1.8873 N   0  0  0  0  0  0  0  0  0  0  0  0
    3.0204   26.1135   -0.9869 C   0  0  0  0  0  0  0  0  0  0  0  0
    4.2453   26.2072   -1.0855 O   0  0  0  0  0  0  0  0  0  0  0  0
    2.3309   25.4108    0.2276 C   0  0  2  0  0  0  0  0  0  0  0  0
    1.5838   24.2474   -0.2772 N   0  0  0  0  0  0  0  0  0  0  0  0
    1.3862   23.0223    0.3794 C   0  0  0  0  0  0  0  0  0  0  0  0
    2.1507   22.5400    1.7948 S   0  0  0  0  0  0  0  0  0  0  0  0
    0.3858   22.0978   -0.4004 C   0  0  2  0  0  0  0  0  0  0  0  0
   -0.4059   21.0765    0.2587 N   0  0  0  0  0  0  0  0  0  0  0  0
   -1.3737   21.3667    1.1866 C   0  0  0  0  0  0  0  0  0  0  0  0
   -1.4014   22.4209    1.7936 O   0  0  0  0  0  0  0  0  0  0  0  0
   -2.3636   20.2052    1.3778 C   0  0  1  0  0  0  0  0  0  0  0  0
   -1.6435   19.0034    1.8360 N   0  0  0  0  0  0  0  0  0  0  0  0
   -2.0053   17.7431    1.3971 C   0  0  0  0  0  0  0  0  0  0  0  0
   -2.9080   17.5768    0.5736 O   0  0  0  0  0  0  0  0  0  0  0  0
   -1.2627   16.5665    2.0453 C   0  0  1  0  0  0  0  0  0  0  0  0
   -0.8221   15.5274    0.9671 C   0  0  1  0  0  0  0  0  0  0  0  0
    0.2226   16.1207    0.0325 C   0  0  0  0  0  0  0  0  0  0  0  0
   -0.1943   16.7041   -1.1775 C   0  0  0  0  0  0  0  0  0  0  0  0
    0.7056   17.3683   -1.9961 C   0  0  0  0  0  0  0  0  0  0  0  0
    2.0485   17.4963   -1.6119 C   0  0  0  0  0  0  0  0  0  0  0  0
    2.4985   16.8517   -0.4570 C   0  0  0  0  0  0  0  0  0  0  0  0
    4.1433   16.9647    0.0604 Cl  0  0  0  0  0  0  0  0  0  0  0  0
    1.5952   16.1614    0.3539 C   0  0  0  0  0  0  0  0  0  0  0  0
    2.9060   18.3281   -2.3206 O   0  0  0  0  0  0  0  0  0  0  0  0
    2.4054   19.6076   -2.5080 C   0  0  0  0  0  0  0  0  0  0  0  0
    1.9093   20.3068   -1.3945 C   0  0  0  0  0  0  0  0  0  0  0  0
    1.1128   21.4386   -1.5693 C   0  0  0  0  0  0  0  0  0  0  0  0
    0.9542   21.9476   -2.8506 C   0  0  0  0  0  0  0  0  0  0  0  0
    1.6110   21.3680   -3.9462 C   0  0  0  0  0  0  0  0  0  0  0  0
    2.3173   20.1630   -3.7923 C   0  0  0  0  0  0  0  0  0  0  0  0
    1.5475   21.9512   -5.1999 O   0  0  0  0  0  0  0  0  0  0  0  0
    1.7361   23.3178   -5.1737 C   0  0  0  0  0  0  0  0  0  0  0  0
    0.6066   24.1393   -5.1401 C   0  0  0  0  0  0  0  0  0  0  0  0
    0.7358   25.4861   -4.8621 C   0  0  0  0  0  0  0  0  0  0  0  0
    2.0061   26.0689   -4.6853 C   0  0  0  0  0  0  0  0  0  0  0  0
    3.1420   25.2438   -4.8155 C   0  0  0  0  0  0  0  0  0  0  0  0
    3.0104   23.8816   -5.0544 C   0  0  0  0  0  0  0  0  0  0  0  0
    4.4453   22.9344   -5.1544 Cl  0  0  0  0  0  0  0  0  0  0  0  0
    2.1728   27.5588   -4.3240 C   0  0  1  0  0  0  0  0  0  0  0  0
    1.4339   26.4441    0.9036 C   0  0  0  0  0  0  0  0  0  0  0  0
    0.0586   26.2656    1.0942 C   0  0  0  0  0  0  0  0  0  0  0  0
   -0.7371   27.3432    1.4650 C   0  0  0  0  0  0  0  0  0  0  0  0
   -0.1782   28.6092    1.6749 C   0  0  0  0  0  0  0  0  0  0  0  0
    1.2079   28.8116    1.5230 C   0  0  0  0  0  0  0  0  0  0  0  0
    2.0035   27.6946    1.2214 C   0  0  0  0  0  0  0  0  0  0  0  0
   -0.1774   17.0084    2.9525 N   0  0  0  0  0  0  0  0  0  0  0  0
   -0.0655   16.3732    4.1926 C   0  0  0  0  0  0  0  0  0  0  0  0
   -0.9487   15.6112    4.5934 O   0  0  0  0  0  0  0  0  0  0  0  0
    1.2418   16.6626    4.9602 C   0  0  2  0  0  0  0  0  0  0  0  0
    1.2470   16.1837    6.3448 N   0  0  0  0  0  0  0  0  0  0  0  0
    0.4565   16.9173    7.3282 C   0  0  0  0  0  0  0  0  0  0  0  0
    2.1486   15.2042    6.7354 C   0  0  0  0  0  0  0  0  0  0  0  0
    2.8452   14.5583    5.9679 O   0  0  0  0  0  0  0  0  0  0  0  0
    2.1842   15.0606    8.0940 O   0  0  0  0  0  0  0  0  0  0  0  0
    1.8782   13.8001    8.7321 C   0  0  0  0  0  0  0  0  0  0  0  0
    1.3832   14.1853   10.1380 C   0  0  0  0  0  0  0  0  0  0  0  0
    3.1374   12.9419    8.8743 C   0  0  0  0  0  0  0  0  0  0  0  0
    0.7489   13.0509    8.0161 C   0  0  0  0  0  0  0  0  0  0  0  0
    1.8861   18.0568    4.7834 C   0  0  0  0  0  0  0  0  0  0  0  0
    3.1368   18.2163    3.9032 C   0  0  0  0  0  0  0  0  0  0  0  0
    3.6447   16.8225    3.5211 C   0  0  0  0  0  0  0  0  0  0  0  0
    2.8791   18.9993    2.6213 C   0  0  0  0  0  0  0  0  0  0  0  0
   -0.9982   29.6606    1.9734 O   0  0  0  0  0  0  0  0  0  0  0  0
   -1.7609   30.0327    0.8386 C   0  0  0  0  0  0  0  0  0  0  0  0
    2.8721   34.5386    3.6622 C   0  0  0  0  0  0  0  0  0  0  0  0
    3.5895   33.8270    2.6660 O   0  0  0  0  0  0  0  0  0  0  0  0
    2.7746   19.5545   -4.9236 O   0  0  0  0  0  0  0  0  0  0  0  0
    1.8764   18.5786   -5.4449 C   0  0  0  0  0  0  0  0  0  0  0  0
    1.7358   31.9510   -1.9255 C   0  0  0  0  0  0  0  0  0  0  0  0
    2.7321   32.6706   -1.9699 O   0  0  0  0  0  0  0  0  0  0  0  0
    0.6717   32.1022   -2.7688 O   0  0  0  0  0  0  0  0  0  0  0  0
   -0.3068   33.1590   -2.5840 C   0  0  0  0  0  0  0  0  0  0  0  0
    0.0221   34.0921   -1.4121 C   0  0  0  0  0  0  0  0  0  0  0  0
   -1.6965   32.5400   -2.4306 C   0  0  0  0  0  0  0  0  0  0  0  0
   -0.2700   33.9850   -3.8820 C   0  0  0  0  0  0  0  0  0  0  0  0
    2.1043   29.5754    4.0390 O   0  0  0  0  0  0  0  0  0  0  0  0
    1.0436   29.9925    4.8950 C   0  0  0  0  0  0  0  0  0  0  0  0
   -0.3117   14.3439    1.5725 O   0  0  0  0  0  0  0  0  0  0  0  0
   -0.6654   12.7980    0.9896 Si  0  0  0  0  0  0  0  0  0  0  0  0
   -2.5576   12.3722    1.4564 C   0  0  0  0  0  0  0  0  0  0  0  0
   -3.0087   11.0516    0.8313 C   0  0  0  0  0  0  0  0  0  0  0  0
   -2.8108   12.3477    2.9639 C   0  0  0  0  0  0  0  0  0  0  0  0
   -0.4466   12.5657   -0.9494 C   0  0  0  0  0  0  0  0  0  0  0  0
   -1.5036   13.3075   -1.7582 C   0  0  0  0  0  0  0  0  0  0  0  0
    0.9541   12.9023   -1.4700 C   0  0  0  0  0  0  0  0  0  0  0  0
    0.4625   11.4534    1.8985 C   0  0  0  0  0  0  0  0  0  0  0  0
    0.3466   10.0725    1.2508 C   0  0  0  0  0  0  0  0  0  0  0  0
    1.9371   11.8658    1.9774 C   0  0  0  0  0  0  0  0  0  0  0  0
    0.9644   28.2958   -4.5671 O   0  0  0  0  0  0  0  0  0  0  0  0
    0.7803   29.2253   -5.9916 Si  0  0  0  0  0  0  0  0  0  0  0  0
    2.4316   30.1531   -6.4026 C   0  0  0  0  0  0  0  0  0  0  0  0
    2.7168   30.3936   -7.8816 C   0  0  0  0  0  0  0  0  0  0  0  0
    2.5629   31.4794   -5.6540 C   0  0  0  0  0  0  0  0  0  0  0  0
    0.2246   28.0888   -7.5215 C   0  0  0  0  0  0  0  0  0  0  0  0
    1.2889   27.1249   -8.0356 C   0  0  0  0  0  0  0  0  0  0  0  0
   -1.0928   27.3399   -7.2740 C   0  0  0  0  0  0  0  0  0  0  0  0
   -0.6607   30.5792   -5.6581 C   0  0  0  0  0  0  0  0  0  0  0  0
   -0.9965   31.3816   -6.9229 C   0  0  0  0  0  0  0  0  0  0  0  0
   -1.9441   30.0030   -5.0738 C   0  0  0  0  0  0  0  0  0  0  0  0
   -3.5023   20.6244    2.3216 C   0  0  0  0  0  0  0  0  0  0  0  0
   -3.2436   20.0901    3.6654 C   0  0  0  0  0  0  0  0  0  0  0  0
   -3.0121   19.6046    4.6955 N   0  0  0  0  0  0  0  0  0  0  0  0
    3.2915   31.9017    4.2888 H   0  0  0  0  0  0  0  0  0  0  0  0
    2.6213   33.1183    0.2083 H   0  0  0  0  0  0  0  0  0  0  0  0
    0.4853   30.9720   -0.5321 H   0  0  0  0  0  0  0  0  0  0  0  0
    1.0591   28.7452   -1.1370 H   0  0  0  0  0  0  0  0  0  0  0  0
    3.7721   27.4279   -2.9118 H   0  0  0  0  0  0  0  0  0  0  0  0
    1.1571   26.5650   -1.8665 H   0  0  0  0  0  0  0  0  0  0  0  0
    3.0509   25.0409    0.9725 H   0  0  0  0  0  0  0  0  0  0  0  0
    1.1610   24.3422   -1.2116 H   0  0  0  0  0  0  0  0  0  0  0  0
   -0.3855   22.8406   -0.6521 H   0  0  0  0  0  0  0  0  0  0  0  0
   -0.2337   20.0896    0.0194 H   0  0  0  0  0  0  0  0  0  0  0  0
   -2.8336   19.9499    0.4166 H   0  0  0  0  0  0  0  0  0  0  0  0
   -0.8576   19.1041    2.4942 H   0  0  0  0  0  0  0  0  0  0  0  0
   -1.9647   16.0388    2.7077 H   0  0  0  0  0  0  0  0  0  0  0  0
   -1.7144   15.2649    0.3798 H   0  0  0  0  0  0  0  0  0  0  0  0
   -1.2499   16.6322   -1.4785 H   0  0  0  0  0  0  0  0  0  0  0  0
    0.3654   17.7966   -2.9505 H   0  0  0  0  0  0  0  0  0  0  0  0
    1.9584   15.6434    1.2537 H   0  0  0  0  0  0  0  0  0  0  0  0
    2.1505   19.9595   -0.3790 H   0  0  0  0  0  0  0  0  0  0  0  0
    0.3029   22.8197   -3.0096 H   0  0  0  0  0  0  0  0  0  0  0  0
   -0.3882   23.7125   -5.3355 H   0  0  0  0  0  0  0  0  0  0  0  0
   -0.1650   26.1118   -4.7777 H   0  0  0  0  0  0  0  0  0  0  0  0
    4.1459   25.6846   -4.7267 H   0  0  0  0  0  0  0  0  0  0  0  0
    2.9308   28.0002   -4.9879 H   0  0  0  0  0  0  0  0  0  0  0  0
   -0.3923   25.2726    0.9505 H   0  0  0  0  0  0  0  0  0  0  0  0
   -1.8198   27.1993    1.5952 H   0  0  0  0  0  0  0  0  0  0  0  0
    3.0986   27.7974    1.2333 H   0  0  0  0  0  0  0  0  0  0  0  0
    0.4729   17.7587    2.6783 H   0  0  0  0  0  0  0  0  0  0  0  0
    1.9468   16.0226    4.4095 H   0  0  0  0  0  0  0  0  0  0  0  0
    0.7701   16.6263    8.3416 H   0  0  0  0  0  0  0  0  0  0  0  0
    0.6127   17.9976    7.1921 H   0  0  0  0  0  0  0  0  0  0  0  0
   -0.6091   16.6809    7.1921 H   0  0  0  0  0  0  0  0  0  0  0  0
    2.0128   13.6954   10.8954 H   0  0  0  0  0  0  0  0  0  0  0  0
    1.4432   15.2767   10.2616 H   0  0  0  0  0  0  0  0  0  0  0  0
    0.3400   13.8591   10.2616 H   0  0  0  0  0  0  0  0  0  0  0  0
    3.3594   12.7906    9.9410 H   0  0  0  0  0  0  0  0  0  0  0  0
    2.9731   11.9670    8.3921 H   0  0  0  0  0  0  0  0  0  0  0  0
    3.9847   13.4513    8.3921 H   0  0  0  0  0  0  0  0  0  0  0  0
    0.0750   12.6039    8.7618 H   0  0  0  0  0  0  0  0  0  0  0  0
    0.1841   13.7540    7.3863 H   0  0  0  0  0  0  0  0  0  0  0  0
    1.1771   12.2572    7.3863 H   0  0  0  0  0  0  0  0  0  0  0  0
    1.1124   18.7134    4.3588 H   0  0  0  0  0  0  0  0  0  0  0  0
    2.2528   18.2973    5.7922 H   0  0  0  0  0  0  0  0  0  0  0  0
    3.8745   18.7828    4.4904 H   0  0  0  0  0  0  0  0  0  0  0  0
    3.8548   16.2458    4.4340 H   0  0  0  0  0  0  0  0  0  0  0  0
    2.8781   16.3029    2.9275 H   0  0  0  0  0  0  0  0  0  0  0  0
    4.5659   16.9179    2.9275 H   0  0  0  0  0  0  0  0  0  0  0  0
    2.5444   20.0163    2.8738 H   0  0  0  0  0  0  0  0  0  0  0  0
    3.8066   19.0542    2.0324 H   0  0  0  0  0  0  0  0  0  0  0  0
    2.1003   18.4926    2.0324 H   0  0  0  0  0  0  0  0  0  0  0  0
   -2.7047   30.4932    1.1661 H   0  0  0  0  0  0  0  0  0  0  0  0
   -1.1912   30.7541    0.2344 H   0  0  0  0  0  0  0  0  0  0  0  0
   -1.9788   29.1397    0.2344 H   0  0  0  0  0  0  0  0  0  0  0  0
    3.2037   34.2097    4.6581 H   0  0  0  0  0  0  0  0  0  0  0  0
    3.0608   35.6165    3.5504 H   0  0  0  0  0  0  0  0  0  0  0  0
    1.7958   34.3412    3.5504 H   0  0  0  0  0  0  0  0  0  0  0  0
    1.3884   18.0484   -4.6138 H   0  0  0  0  0  0  0  0  0  0  0  0
    1.1129   19.0753   -6.0616 H   0  0  0  0  0  0  0  0  0  0  0  0
    2.4346   17.8588   -6.0616 H   0  0  0  0  0  0  0  0  0  0  0  0
   -0.1627   33.5678   -0.4629 H   0  0  0  0  0  0  0  0  0  0  0  0
    1.0795   34.3903   -1.4664 H   0  0  0  0  0  0  0  0  0  0  0  0
   -0.6146   34.9874   -1.4664 H   0  0  0  0  0  0  0  0  0  0  0  0
   -1.9347   32.4339   -1.3620 H   0  0  0  0  0  0  0  0  0  0  0  0
   -2.4427   33.1908   -2.9097 H   0  0  0  0  0  0  0  0  0  0  0  0
   -1.7118   31.5500   -2.9097 H   0  0  0  0  0  0  0  0  0  0  0  0
   -0.2223   35.0556   -3.6341 H   0  0  0  0  0  0  0  0  0  0  0  0
    0.6166   33.7049   -4.4698 H   0  0  0  0  0  0  0  0  0  0  0  0
   -1.1780   33.7849   -4.4698 H   0  0  0  0  0  0  0  0  0  0  0  0
    1.3504   29.8719    5.9445 H   0  0  0  0  0  0  0  0  0  0  0  0
    0.8096   31.0496    4.7006 H   0  0  0  0  0  0  0  0  0  0  0  0
    0.1523   29.3779    4.7006 H   0  0  0  0  0  0  0  0  0  0  0  0
   -3.1577   13.1917    1.0342 H   0  0  0  0  0  0  0  0  0  0  0  0
   -3.2539   10.3337    1.6279 H   0  0  0  0  0  0  0  0  0  0  0  0
   -3.8983   11.2259    0.2082 H   0  0  0  0  0  0  0  0  0  0  0  0
   -2.1984   10.6452    0.2082 H   0  0  0  0  0  0  0  0  0  0  0  0
   -1.8536   12.4403    3.4980 H   0  0  0  0  0  0  0  0  0  0  0  0
   -3.4670   13.1865    3.2392 H   0  0  0  0  0  0  0  0  0  0  0  0
   -3.2940   11.3986    3.2392 H   0  0  0  0  0  0  0  0  0  0  0  0
   -0.5898   11.4857   -1.1013 H   0  0  0  0  0  0  0  0  0  0  0  0
   -2.2086   13.8022   -1.0739 H   0  0  0  0  0  0  0  0  0  0  0  0
   -1.0167   14.0631   -2.3923 H   0  0  0  0  0  0  0  0  0  0  0  0
   -2.0486   12.5927   -2.3923 H   0  0  0  0  0  0  0  0  0  0  0  0
    1.6321   13.0652   -0.6193 H   0  0  0  0  0  0  0  0  0  0  0  0
    1.3279   12.0684   -2.0823 H   0  0  0  0  0  0  0  0  0  0  0  0
    0.9082   13.8150   -2.0823 H   0  0  0  0  0  0  0  0  0  0  0  0
    0.0731   11.3959    2.9257 H   0  0  0  0  0  0  0  0  0  0  0  0
    0.2821    9.3039    2.0351 H   0  0  0  0  0  0  0  0  0  0  0  0
   -0.5578   10.0354    0.6258 H   0  0  0  0  0  0  0  0  0  0  0  0
    1.2322    9.8852    0.6258 H   0  0  0  0  0  0  0  0  0  0  0  0
    2.2383   11.9500    3.0320 H   0  0  0  0  0  0  0  0  0  0  0  0
    2.5574   11.1067    1.4784 H   0  0  0  0  0  0  0  0  0  0  0  0
    2.0735   12.8366    1.4784 H   0  0  0  0  0  0  0  0  0  0  0  0
    3.1898   29.4375   -6.0519 H   0  0  0  0  0  0  0  0  0  0  0  0
    3.5541   31.0997   -7.9835 H   0  0  0  0  0  0  0  0  0  0  0  0
    2.9800   29.4407   -8.3640 H   0  0  0  0  0  0  0  0  0  0  0  0
    1.8220   30.8139   -8.3640 H   0  0  0  0  0  0  0  0  0  0  0  0
    2.5444   31.2921   -4.5702 H   0  0  0  0  0  0  0  0  0  0  0  0
    3.5132   31.9618   -5.9265 H   0  0  0  0  0  0  0  0  0  0  0  0
    1.7256   32.1387   -5.9265 H   0  0  0  0  0  0  0  0  0  0  0  0
    0.0634   28.8256   -8.3222 H   0  0  0  0  0  0  0  0  0  0  0  0
    1.8039   26.6585   -7.1828 H   0  0  0  0  0  0  0  0  0  0  0  0
    0.8123   26.3448   -8.6474 H   0  0  0  0  0  0  0  0  0  0  0  0
    2.0181   27.6762   -8.6474 H   0  0  0  0  0  0  0  0  0  0  0  0
   -1.2621   27.2437   -6.1914 H   0  0  0  0  0  0  0  0  0  0  0  0
   -1.9239   27.9006   -7.7267 H   0  0  0  0  0  0  0  0  0  0  0  0
   -1.0362   26.3390   -7.7267 H   0  0  0  0  0  0  0  0  0  0  0  0
   -0.2304   31.2457   -4.8961 H   0  0  0  0  0  0  0  0  0  0  0  0
   -1.4066   32.3615   -6.6373 H   0  0  0  0  0  0  0  0  0  0  0  0
   -0.0832   31.5259   -7.5189 H   0  0  0  0  0  0  0  0  0  0  0  0
   -1.7403   30.8324   -7.5189 H   0  0  0  0  0  0  0  0  0  0  0  0
   -1.8901   30.0272   -3.9754 H   0  0  0  0  0  0  0  0  0  0  0  0
   -2.8023   30.6022   -5.4120 H   0  0  0  0  0  0  0  0  0  0  0  0
   -2.0666   28.9635   -5.4120 H   0  0  0  0  0  0  0  0  0  0  0  0
   -3.5559   21.7221    2.3671 H   0  0  0  0  0  0  0  0  0  0  0  0
   -4.4565   20.2270    1.9455 H   0  0  0  0  0  0  0  0  0  0  0  0
  1  2  2  0  0  0  0
  2  3  1  0  0  0  0
  2115  1  0  0  0  0
  3 88  1  0  0  0  0
  3  4  2  0  0  0  0
  4  5  1  0  0  0  0
  5  6  2  0  0  0  0
  5  7  1  0  0  0  0
  6  1  1  0  0  0  0
  6116  1  0  0  0  0
  7 81  1  0  0  0  0
  7  8  1  0  0  0  0
  7117  1  1  0  0  0
  8  9  1  0  0  0  0
  8118  1  0  0  0  0
  9 10  2  0  0  0  0
  9 11  1  0  0  0  0
 11 12  1  0  0  0  0
 11119  1  6  0  0  0
 12 13  1  0  0  0  0
 12120  1  0  0  0  0
 13 14  2  0  0  0  0
 13 15  1  0  0  0  0
 15 16  1  0  0  0  0
 15 52  1  0  0  0  0
 15121  1  1  0  0  0
 16 17  1  0  0  0  0
 16122  1  0  0  0  0
 17 18  2  0  0  0  0
 17 19  1  0  0  0  0
 19 20  1  0  0  0  0
 19123  1  6  0  0  0
 20 21  1  0  0  0  0
 20124  1  0  0  0  0
 21 22  2  0  0  0  0
 21 23  1  0  0  0  0
 23112  1  0  0  0  0
 23 24  1  0  0  0  0
 23125  1  6  0  0  0
 24 25  1  0  0  0  0
 24126  1  0  0  0  0
 25 26  2  0  0  0  0
 25 27  1  0  0  0  0
 27 58  1  0  0  0  0
 27 28  1  0  0  0  0
 27127  1  1  0  0  0
 28 90  1  0  0  0  0
 28 29  1  0  0  0  0
 28128  1  6  0  0  0
 29 30  2  0  0  0  0
 30 31  1  0  0  0  0
 30129  1  0  0  0  0
 31 32  2  0  0  0  0
 31130  1  0  0  0  0
 32 33  1  0  0  0  0
 32 36  1  0  0  0  0
 33 34  1  0  0  0  0
 33 35  2  0  0  0  0
 35 29  1  0  0  0  0
 35131  1  0  0  0  0
 36 37  1  0  0  0  0
 37 38  2  0  0  0  0
 38 39  1  0  0  0  0
 38132  1  0  0  0  0
 39 40  2  0  0  0  0
 39 19  1  0  0  0  0
 40 41  1  0  0  0  0
 40133  1  0  0  0  0
 41 42  2  0  0  0  0
 41 43  1  0  0  0  0
 42 79  1  0  0  0  0
 42 37  1  0  0  0  0
 43 44  1  0  0  0  0
 44 45  2  0  0  0  0
 45 46  1  0  0  0  0
 45134  1  0  0  0  0
 46 47  2  0  0  0  0
 46135  1  0  0  0  0
 47 48  1  0  0  0  0
 47 51  1  0  0  0  0
 48 49  2  0  0  0  0
 48136  1  0  0  0  0
 49 50  1  0  0  0  0
 49 44  1  0  0  0  0
 51101  1  0  0  0  0
 51 11  1  0  0  0  0
 51137  1  6  0  0  0
 52 53  2  0  0  0  0
 53 54  1  0  0  0  0
 53138  1  0  0  0  0
 54 55  2  0  0  0  0
 54139  1  0  0  0  0
 55 75  1  0  0  0  0
 55 56  1  0  0  0  0
 56 57  2  0  0  0  0
 56  4  1  0  0  0  0
 57 52  1  0  0  0  0
 57140  1  0  0  0  0
 58 59  1  0  0  0  0
 58141  1  0  0  0  0
 59 60  2  0  0  0  0
 59 61  1  0  0  0  0
 61 71  1  0  0  0  0
 61 62  1  0  0  0  0
 61142  1  6  0  0  0
 62 63  1  0  0  0  0
 62 64  1  0  0  0  0
 63143  1  0  0  0  0
 63144  1  0  0  0  0
 63145  1  0  0  0  0
 64 65  2  0  0  0  0
 64 66  1  0  0  0  0
 66 67  1  0  0  0  0
 67 68  1  0  0  0  0
 67 69  1  0  0  0  0
 67 70  1  0  0  0  0
 68146  1  0  0  0  0
 68147  1  0  0  0  0
 68148  1  0  0  0  0
 69149  1  0  0  0  0
 69150  1  0  0  0  0
 69151  1  0  0  0  0
 70152  1  0  0  0  0
 70153  1  0  0  0  0
 70154  1  0  0  0  0
 71 72  1  0  0  0  0
 71155  1  0  0  0  0
 71156  1  0  0  0  0
 72 73  1  0  0  0  0
 72 74  1  0  0  0  0
 72157  1  0  0  0  0
 73158  1  0  0  0  0
 73159  1  0  0  0  0
 73160  1  0  0  0  0
 74161  1  0  0  0  0
 74162  1  0  0  0  0
 74163  1  0  0  0  0
 75 76  1  0  0  0  0
 76164  1  0  0  0  0
 76165  1  0  0  0  0
 76166  1  0  0  0  0
 77 78  1  0  0  0  0
 77167  1  0  0  0  0
 77168  1  0  0  0  0
 77169  1  0  0  0  0
 78  1  1  0  0  0  0
 79 80  1  0  0  0  0
 80170  1  0  0  0  0
 80171  1  0  0  0  0
 80172  1  0  0  0  0
 81 82  2  0  0  0  0
 81 83  1  0  0  0  0
 83 84  1  0  0  0  0
 84 85  1  0  0  0  0
 84 86  1  0  0  0  0
 84 87  1  0  0  0  0
 85173  1  0  0  0  0
 85174  1  0  0  0  0
 85175  1  0  0  0  0
 86176  1  0  0  0  0
 86177  1  0  0  0  0
 86178  1  0  0  0  0
 87179  1  0  0  0  0
 87180  1  0  0  0  0
 87181  1  0  0  0  0
 88 89  1  0  0  0  0
 89182  1  0  0  0  0
 89183  1  0  0  0  0
 89184  1  0  0  0  0
 90 91  1  0  0  0  0
 91 98  1  0  0  0  0
 91 95  1  0  0  0  0
 91 92  1  0  0  0  0
 92 93  1  0  0  0  0
 92 94  1  0  0  0  0
 92185  1  0  0  0  0
 93186  1  0  0  0  0
 93187  1  0  0  0  0
 93188  1  0  0  0  0
 94189  1  0  0  0  0
 94190  1  0  0  0  0
 94191  1  0  0  0  0
 95 96  1  0  0  0  0
 95 97  1  0  0  0  0
 95192  1  0  0  0  0
 96193  1  0  0  0  0
 96194  1  0  0  0  0
 96195  1  0  0  0  0
 97196  1  0  0  0  0
 97197  1  0  0  0  0
 97198  1  0  0  0  0
 98 99  1  0  0  0  0
 98100  1  0  0  0  0
 98199  1  0  0  0  0
 99200  1  0  0  0  0
 99201  1  0  0  0  0
 99202  1  0  0  0  0
100203  1  0  0  0  0
100204  1  0  0  0  0
100205  1  0  0  0  0
101102  1  0  0  0  0
102109  1  0  0  0  0
102106  1  0  0  0  0
102103  1  0  0  0  0
103104  1  0  0  0  0
103105  1  0  0  0  0
103206  1  0  0  0  0
104207  1  0  0  0  0
104208  1  0  0  0  0
104209  1  0  0  0  0
105210  1  0  0  0  0
105211  1  0  0  0  0
105212  1  0  0  0  0
106107  1  0  0  0  0
106108  1  0  0  0  0
106213  1  0  0  0  0
107214  1  0  0  0  0
107215  1  0  0  0  0
107216  1  0  0  0  0
108217  1  0  0  0  0
108218  1  0  0  0  0
108219  1  0  0  0  0
109110  1  0  0  0  0
109111  1  0  0  0  0
109220  1  0  0  0  0
110221  1  0  0  0  0
110222  1  0  0  0  0
110223  1  0  0  0  0
111224  1  0  0  0  0
111225  1  0  0  0  0
111226  1  0  0  0  0
112113  1  0  0  0  0
112227  1  0  0  0  0
112228  1  0  0  0  0
113114  3  0  0  0  0
M  END
$$$$
*****
 OpenBabel04182602263D

228235  0  0  1  0  0  0  0  0999 V2000
    1.7796   33.2931    7.7007 C   0  0  0  0  0  0  0  0  0  0  0  0
    1.5886   31.9175    7.6750 C   0  0  0  0  0  0  0  0  0  0  0  0
    1.1396   31.3035    6.5124 C   0  0  0  0  0  0  0  0  0  0  0  0
    0.9372   32.0336    5.2991 C   0  0  0  0  0  0  0  0  0  0  0  0
    1.1998   33.4483    5.2863 C   0  0  0  0  0  0  0  0  0  0  0  0
    1.5413   34.0410    6.5316 C   0  0  0  0  0  0  0  0  0  0  0  0
    0.9172   34.3808    4.0637 C   0  0  2  0  0  0  0  0  0  0  0  0
    1.2900   33.8772    2.7112 N   0  0  0  0  0  0  0  0  0  0  0  0
    2.4144   34.3189    2.0143 C   0  0  0  0  0  0  0  0  0  0  0  0
    3.1278   35.2521    2.3742 O   0  0  0  0  0  0  0  0  0  0  0  0
    2.6650   33.6378    0.6432 C   0  0  1  0  0  0  0  0  0  0  0  0
    2.0738   32.2950    0.5223 N   0  0  0  0  0  0  0  0  0  0  0  0
    2.8392   31.1610    0.8082 C   0  0  0  0  0  0  0  0  0  0  0  0
    4.0514   31.2429    1.0156 O   0  0  0  0  0  0  0  0  0  0  0  0
    2.0457   29.8285    1.0050 C   0  0  2  0  0  0  0  0  0  0  0  0
    1.4919   29.4258   -0.2979 N   0  0  0  0  0  0  0  0  0  0  0  0
    1.3133   28.1157   -0.7699 C   0  0  0  0  0  0  0  0  0  0  0  0
    1.9014   26.7253   -0.0340 S   0  0  0  0  0  0  0  0  0  0  0  0
    0.5288   28.0877   -2.1290 C   0  0  2  0  0  0  0  0  0  0  0  0
   -0.2541   26.9424   -2.5529 N   0  0  0  0  0  0  0  0  0  0  0  0
   -1.3710   26.5133   -1.8820 C   0  0  0  0  0  0  0  0  0  0  0  0
   -1.5853   26.8011   -0.7193 O   0  0  0  0  0  0  0  0  0  0  0  0
   -2.2668   25.6188   -2.7554 C   0  0  1  0  0  0  0  0  0  0  0  0
   -1.5146   24.4279   -3.1897 N   0  0  0  0  0  0  0  0  0  0  0  0
   -1.6897   23.8938   -4.4530 C   0  0  0  0  0  0  0  0  0  0  0  0
   -2.4415   24.4152   -5.2798 O   0  0  0  0  0  0  0  0  0  0  0  0
   -0.9458   22.5817   -4.7373 C   0  0  1  0  0  0  0  0  0  0  0  0
   -0.2567   22.6272   -6.1371 C   0  0  1  0  0  0  0  0  0  0  0  0
    0.8555   23.6661   -6.1642 C   0  0  0  0  0  0  0  0  0  0  0  0
    0.5700   24.9621   -6.6302 C   0  0  0  0  0  0  0  0  0  0  0  0
    1.5158   25.9723   -6.5525 C   0  0  0  0  0  0  0  0  0  0  0  0
    2.7696   25.7229   -5.9751 C   0  0  0  0  0  0  0  0  0  0  0  0
    3.1015   24.4233   -5.5847 C   0  0  0  0  0  0  0  0  0  0  0  0
    4.6341   24.0539   -4.8774 Cl  0  0  0  0  0  0  0  0  0  0  0  0
    2.1558   23.4010   -5.6869 C   0  0  0  0  0  0  0  0  0  0  0  0
    3.6420   26.7708   -5.7099 O   0  0  0  0  0  0  0  0  0  0  0  0
    3.0587   27.8096   -5.0003 C   0  0  0  0  0  0  0  0  0  0  0  0
    2.3411   27.5068   -3.8305 C   0  0  0  0  0  0  0  0  0  0  0  0
    1.4782   28.4479   -3.2685 C   0  0  0  0  0  0  0  0  0  0  0  0
    1.4644   29.7328   -3.7926 C   0  0  0  0  0  0  0  0  0  0  0  0
    2.3266   30.0978   -4.8371 C   0  0  0  0  0  0  0  0  0  0  0  0
    3.1105   29.1256   -5.4812 C   0  0  0  0  0  0  0  0  0  0  0  0
    2.3956   31.4096   -5.2732 O   0  0  0  0  0  0  0  0  0  0  0  0
    2.4513   32.3233   -4.2409 C   0  0  0  0  0  0  0  0  0  0  0  0
    1.2584   32.9146   -3.8176 C   0  0  0  0  0  0  0  0  0  0  0  0
    1.2202   33.6349   -2.6398 C   0  0  0  0  0  0  0  0  0  0  0  0
    2.3912   33.8522   -1.8873 C   0  0  0  0  0  0  0  0  0  0  0  0
    3.6051   33.3281   -2.3771 C   0  0  0  0  0  0  0  0  0  0  0  0
    3.6365   32.5689   -3.5401 C   0  0  0  0  0  0  0  0  0  0  0  0
    5.1516   31.9258   -4.0470 Cl  0  0  0  0  0  0  0  0  0  0  0  0
    2.3645   34.6091   -0.5440 C   0  0  1  0  0  0  0  0  0  0  0  0
    0.9670   30.0902    2.0528 C   0  0  0  0  0  0  0  0  0  0  0  0
   -0.3988   29.8901    1.8210 C   0  0  0  0  0  0  0  0  0  0  0  0
   -1.3366   30.3987    2.7119 C   0  0  0  0  0  0  0  0  0  0  0  0
   -0.9341   31.0938    3.8582 C   0  0  0  0  0  0  0  0  0  0  0  0
    0.4346   31.2820    4.1350 C   0  0  0  0  0  0  0  0  0  0  0  0
    1.3656   30.6961    3.2624 C   0  0  0  0  0  0  0  0  0  0  0  0
   -0.0519   22.1813   -3.6251 N   0  0  0  0  0  0  0  0  0  0  0  0
   -0.3900   21.0370   -2.8971 C   0  0  0  0  0  0  0  0  0  0  0  0
   -1.4864   20.4930   -3.0494 O   0  0  0  0  0  0  0  0  0  0  0  0
    0.7159   20.5080   -1.9594 C   0  0  2  0  0  0  0  0  0  0  0  0
    0.8690   21.2698   -0.7173 N   0  0  0  0  0  0  0  0  0  0  0  0
    1.9008   22.3009   -0.6668 C   0  0  0  0  0  0  0  0  0  0  0  0
    0.2032   20.8643    0.4304 C   0  0  0  0  0  0  0  0  0  0  0  0
   -0.6635   20.0044    0.4610 O   0  0  0  0  0  0  0  0  0  0  0  0
    0.6503   21.5290    1.5376 O   0  0  0  0  0  0  0  0  0  0  0  0
    1.4230   20.8632    2.5619 C   0  0  0  0  0  0  0  0  0  0  0  0
    0.3761   20.3475    3.5659 C   0  0  0  0  0  0  0  0  0  0  0  0
    2.3436   21.8530    3.2794 C   0  0  0  0  0  0  0  0  0  0  0  0
    2.1920   19.6572    2.0112 C   0  0  0  0  0  0  0  0  0  0  0  0
    2.0591   20.0855   -2.5979 C   0  0  0  0  0  0  0  0  0  0  0  0
    2.4225   18.5951   -2.7013 C   0  0  0  0  0  0  0  0  0  0  0  0
    2.4785   18.0079   -1.2876 C   0  0  0  0  0  0  0  0  0  0  0  0
    1.4230   17.7833   -3.5168 C   0  0  0  0  0  0  0  0  0  0  0  0
   -1.8826   31.6379    4.6774 O   0  0  0  0  0  0  0  0  0  0  0  0
   -3.1376   31.6847    4.0209 C   0  0  0  0  0  0  0  0  0  0  0  0
    1.1608   34.5613    9.5950 C   0  0  0  0  0  0  0  0  0  0  0  0
    2.1481   33.8028    8.9144 O   0  0  0  0  0  0  0  0  0  0  0  0
    3.7841   29.5052   -6.6042 O   0  0  0  0  0  0  0  0  0  0  0  0
    3.0045   29.4076   -7.7931 C   0  0  0  0  0  0  0  0  0  0  0  0
    1.1745   35.9165    4.1581 C   0  0  0  0  0  0  0  0  0  0  0  0
    2.2044   36.3930    4.6318 O   0  0  0  0  0  0  0  0  0  0  0  0
    0.1212   36.6834    3.7474 O   0  0  0  0  0  0  0  0  0  0  0  0
   -0.6643   37.4685    4.6829 C   0  0  0  0  0  0  0  0  0  0  0  0
   -0.5838   36.9525    6.1250 C   0  0  0  0  0  0  0  0  0  0  0  0
   -2.1118   37.5363    4.1951 C   0  0  0  0  0  0  0  0  0  0  0  0
   -0.0585   38.8827    4.6430 C   0  0  0  0  0  0  0  0  0  0  0  0
    0.8749   29.9471    6.5312 O   0  0  0  0  0  0  0  0  0  0  0  0
    1.0270   29.4044    7.8404 C   0  0  0  0  0  0  0  0  0  0  0  0
    0.2656   21.3516   -6.4944 O   0  0  0  0  0  0  0  0  0  0  0  0
   -0.0253   20.6374   -7.9977 Si  0  0  0  0  0  0  0  0  0  0  0  0
    1.1040   21.5620   -9.3577 C   0  0  0  0  0  0  0  0  0  0  0  0
    0.5223   22.9229   -9.7419 C   0  0  0  0  0  0  0  0  0  0  0  0
    2.5590   21.7236   -8.9169 C   0  0  0  0  0  0  0  0  0  0  0  0
    0.3534   18.7116   -8.0953 C   0  0  0  0  0  0  0  0  0  0  0  0
    1.8104   18.3784   -7.7988 C   0  0  0  0  0  0  0  0  0  0  0  0
   -0.5749   17.8430   -7.2409 C   0  0  0  0  0  0  0  0  0  0  0  0
   -1.9071   20.9191   -8.5322 C   0  0  0  0  0  0  0  0  0  0  0  0
   -2.2442   20.2120   -9.8461 C   0  0  0  0  0  0  0  0  0  0  0  0
   -2.9056   20.4986   -7.4473 C   0  0  0  0  0  0  0  0  0  0  0  0
    1.1425   35.3459   -0.3814 O   0  0  0  0  0  0  0  0  0  0  0  0
    0.9295   36.8626   -1.1439 Si  0  0  0  0  0  0  0  0  0  0  0  0
    0.4844   38.2153    0.1710 C   0  0  0  0  0  0  0  0  0  0  0  0
   -0.8828   38.0830    0.8344 C   0  0  0  0  0  0  0  0  0  0  0  0
    1.5488   38.3498    1.2598 C   0  0  0  0  0  0  0  0  0  0  0  0
    2.5532   37.3890   -2.1574 C   0  0  0  0  0  0  0  0  0  0  0  0
    2.6168   36.8794   -3.5935 C   0  0  0  0  0  0  0  0  0  0  0  0
    2.8298   38.8989   -2.1186 C   0  0  0  0  0  0  0  0  0  0  0  0
   -0.5915   36.6892   -2.4389 C   0  0  0  0  0  0  0  0  0  0  0  0
   -1.7671   35.9045   -1.8400 C   0  0  0  0  0  0  0  0  0  0  0  0
   -1.1022   38.0133   -2.9926 C   0  0  0  0  0  0  0  0  0  0  0  0
   -3.5663   25.2746   -2.0097 C   0  0  0  0  0  0  0  0  0  0  0  0
   -3.4670   23.9165   -1.4584 C   0  0  0  0  0  0  0  0  0  0  0  0
   -3.3384   22.8689   -0.9721 N   0  0  0  0  0  0  0  0  0  0  0  0
    1.7923   31.3157    8.5730 H   0  0  0  0  0  0  0  0  0  0  0  0
    1.6235   35.1366    6.5850 H   0  0  0  0  0  0  0  0  0  0  0  0
   -0.1725   34.2891    4.1823 H   0  0  0  0  0  0  0  0  0  0  0  0
    0.6875   33.1681    2.2696 H   0  0  0  0  0  0  0  0  0  0  0  0
    3.7428   33.4262    0.5830 H   0  0  0  0  0  0  0  0  0  0  0  0
    1.0928   32.1908    0.2260 H   0  0  0  0  0  0  0  0  0  0  0  0
    2.6788   29.0030    1.3622 H   0  0  0  0  0  0  0  0  0  0  0  0
    1.2048   30.1861   -0.9307 H   0  0  0  0  0  0  0  0  0  0  0  0
   -0.2620   28.8154   -1.8942 H   0  0  0  0  0  0  0  0  0  0  0  0
    0.0418   26.4285   -3.3951 H   0  0  0  0  0  0  0  0  0  0  0  0
   -2.5640   26.1595   -3.6661 H   0  0  0  0  0  0  0  0  0  0  0  0
   -0.8473   23.9862   -2.5412 H   0  0  0  0  0  0  0  0  0  0  0  0
   -1.6863   21.7699   -4.7887 H   0  0  0  0  0  0  0  0  0  0  0  0
   -1.0243   22.9109   -6.8721 H   0  0  0  0  0  0  0  0  0  0  0  0
   -0.4183   25.1771   -7.0626 H   0  0  0  0  0  0  0  0  0  0  0  0
    1.2824   26.9730   -6.9450 H   0  0  0  0  0  0  0  0  0  0  0  0
    2.4282   22.3770   -5.3917 H   0  0  0  0  0  0  0  0  0  0  0  0
    2.4605   26.5220   -3.3553 H   0  0  0  0  0  0  0  0  0  0  0  0
    0.7660   30.4771   -3.3823 H   0  0  0  0  0  0  0  0  0  0  0  0
    0.3471   32.8062   -4.4240 H   0  0  0  0  0  0  0  0  0  0  0  0
    0.2630   34.0443   -2.2847 H   0  0  0  0  0  0  0  0  0  0  0  0
    4.5398   33.5230   -1.8310 H   0  0  0  0  0  0  0  0  0  0  0  0
    3.1683   35.3601   -0.5461 H   0  0  0  0  0  0  0  0  0  0  0  0
   -0.7299   29.3304    0.9338 H   0  0  0  0  0  0  0  0  0  0  0  0
   -2.4087   30.2531    2.5136 H   0  0  0  0  0  0  0  0  0  0  0  0
    2.4327   30.7100    3.5289 H   0  0  0  0  0  0  0  0  0  0  0  0
    0.7905   22.7280   -3.3962 H   0  0  0  0  0  0  0  0  0  0  0  0
    0.2917   19.5341   -1.6740 H   0  0  0  0  0  0  0  0  0  0  0  0
    2.1346   22.5346    0.3824 H   0  0  0  0  0  0  0  0  0  0  0  0
    2.8076   21.9373   -1.1723 H   0  0  0  0  0  0  0  0  0  0  0  0
    1.5378   23.2079   -1.1723 H   0  0  0  0  0  0  0  0  0  0  0  0
    0.7335   20.5236    4.5912 H   0  0  0  0  0  0  0  0  0  0  0  0
   -0.5735   20.8809    3.4119 H   0  0  0  0  0  0  0  0  0  0  0  0
    0.2203   19.2695    3.4119 H   0  0  0  0  0  0  0  0  0  0  0  0
    2.2330   21.7341    4.3674 H   0  0  0  0  0  0  0  0  0  0  0  0
    3.3874   21.6565    2.9933 H   0  0  0  0  0  0  0  0  0  0  0  0
    2.0721   22.8799    2.9933 H   0  0  0  0  0  0  0  0  0  0  0  0
    2.5763   19.0545    2.8473 H   0  0  0  0  0  0  0  0  0  0  0  0
    1.5185   19.0429    1.3955 H   0  0  0  0  0  0  0  0  0  0  0  0
    3.0331   20.0087    1.3955 H   0  0  0  0  0  0  0  0  0  0  0  0
    2.0644   20.4861   -3.6223 H   0  0  0  0  0  0  0  0  0  0  0  0
    2.8093   20.4822   -1.8980 H   0  0  0  0  0  0  0  0  0  0  0  0
    3.3922   18.5346   -3.2171 H   0  0  0  0  0  0  0  0  0  0  0  0
    2.4010   18.8201   -0.5499 H   0  0  0  0  0  0  0  0  0  0  0  0
    1.6432   17.3057   -1.1489 H   0  0  0  0  0  0  0  0  0  0  0  0
    3.4314   17.4762   -1.1489 H   0  0  0  0  0  0  0  0  0  0  0  0
    0.7518   17.2382   -2.8368 H   0  0  0  0  0  0  0  0  0  0  0  0
    0.8317   18.4601   -4.1511 H   0  0  0  0  0  0  0  0  0  0  0  0
    1.9642   17.0658   -4.1511 H   0  0  0  0  0  0  0  0  0  0  0  0
   -3.9424   31.7147    4.7701 H   0  0  0  0  0  0  0  0  0  0  0  0
   -3.1888   32.5854    3.3915 H   0  0  0  0  0  0  0  0  0  0  0  0
   -3.2557   30.7903    3.3915 H   0  0  0  0  0  0  0  0  0  0  0  0
    1.3002   34.4542   10.6809 H   0  0  0  0  0  0  0  0  0  0  0  0
    1.2556   35.6211    9.3159 H   0  0  0  0  0  0  0  0  0  0  0  0
    0.1613   34.1966    9.3159 H   0  0  0  0  0  0  0  0  0  0  0  0
    1.9454   29.2750   -7.5272 H   0  0  0  0  0  0  0  0  0  0  0  0
    3.1216   30.3274   -8.3849 H   0  0  0  0  0  0  0  0  0  0  0  0
    3.3447   28.5450   -8.3849 H   0  0  0  0  0  0  0  0  0  0  0  0
   -0.7149   37.7926    6.8229 H   0  0  0  0  0  0  0  0  0  0  0  0
   -1.3768   36.2090    6.2932 H   0  0  0  0  0  0  0  0  0  0  0  0
    0.3980   36.4859    6.2932 H   0  0  0  0  0  0  0  0  0  0  0  0
   -2.7894   37.5680    5.0610 H   0  0  0  0  0  0  0  0  0  0  0  0
   -2.2517   38.4420    3.5867 H   0  0  0  0  0  0  0  0  0  0  0  0
   -2.3357   36.6477    3.5867 H   0  0  0  0  0  0  0  0  0  0  0  0
    0.0964   39.2443    5.6702 H   0  0  0  0  0  0  0  0  0  0  0  0
    0.9061   38.8536    4.1151 H   0  0  0  0  0  0  0  0  0  0  0  0
   -0.7450   39.5609    4.1151 H   0  0  0  0  0  0  0  0  0  0  0  0
    0.8091   30.1820    8.5873 H   0  0  0  0  0  0  0  0  0  0  0  0
    0.3298   28.5638    7.9721 H   0  0  0  0  0  0  0  0  0  0  0  0
    2.0595   29.0486    7.9721 H   0  0  0  0  0  0  0  0  0  0  0  0
    1.0976   20.9074  -10.2417 H   0  0  0  0  0  0  0  0  0  0  0  0
    0.2804   23.4889   -8.8302 H   0  0  0  0  0  0  0  0  0  0  0  0
    1.2599   23.4824  -10.3359 H   0  0  0  0  0  0  0  0  0  0  0  0
   -0.3918   22.7764  -10.3359 H   0  0  0  0  0  0  0  0  0  0  0  0
    2.6108   21.7293   -7.8181 H   0  0  0  0  0  0  0  0  0  0  0  0
    3.1557   20.8862   -9.3077 H   0  0  0  0  0  0  0  0  0  0  0  0
    2.9574   22.6715   -9.3077 H   0  0  0  0  0  0  0  0  0  0  0  0
    0.1473   18.4573   -9.1454 H   0  0  0  0  0  0  0  0  0  0  0  0
    1.9643   18.3432   -6.7102 H   0  0  0  0  0  0  0  0  0  0  0  0
    2.0591   17.4002   -8.2361 H   0  0  0  0  0  0  0  0  0  0  0  0
    2.4596   19.1513   -8.2361 H   0  0  0  0  0  0  0  0  0  0  0  0
   -0.3747   18.0303   -6.1756 H   0  0  0  0  0  0  0  0  0  0  0  0
   -1.6220   18.0933   -7.4668 H   0  0  0  0  0  0  0  0  0  0  0  0
   -0.3947   16.7816   -7.4668 H   0  0  0  0  0  0  0  0  0  0  0  0
   -2.0065   22.0047   -8.6793 H   0  0  0  0  0  0  0  0  0  0  0  0
   -2.7083   19.2384   -9.6300 H   0  0  0  0  0  0  0  0  0  0  0  0
   -2.9441   20.8311  -10.4266 H   0  0  0  0  0  0  0  0  0  0  0  0
   -1.3226   20.0580  -10.4266 H   0  0  0  0  0  0  0  0  0  0  0  0
   -2.4681   20.6829   -6.4550 H   0  0  0  0  0  0  0  0  0  0  0  0
   -3.8311   21.0834   -7.5543 H   0  0  0  0  0  0  0  0  0  0  0  0
   -3.1340   19.4279   -7.5543 H   0  0  0  0  0  0  0  0  0  0  0  0
    0.4455   39.1273   -0.4428 H   0  0  0  0  0  0  0  0  0  0  0  0
   -0.7625   38.0946    1.9277 H   0  0  0  0  0  0  0  0  0  0  0  0
   -1.5224   38.9234    0.5269 H   0  0  0  0  0  0  0  0  0  0  0  0
   -1.3494   37.1355    0.5269 H   0  0  0  0  0  0  0  0  0  0  0  0
    1.0712   38.2895    2.2489 H   0  0  0  0  0  0  0  0  0  0  0  0
    2.2832   37.5373    1.1570 H   0  0  0  0  0  0  0  0  0  0  0  0
    2.0580   39.3194    1.1570 H   0  0  0  0  0  0  0  0  0  0  0  0
    3.3558   36.8720   -1.6110 H   0  0  0  0  0  0  0  0  0  0  0  0
    2.7530   35.7879   -3.5895 H   0  0  0  0  0  0  0  0  0  0  0  0
    1.6804   37.1302   -4.1134 H   0  0  0  0  0  0  0  0  0  0  0  0
    3.4629   37.3526   -4.1134 H   0  0  0  0  0  0  0  0  0  0  0  0
    2.8911   39.2337   -1.0726 H   0  0  0  0  0  0  0  0  0  0  0  0
    3.7817   39.1105   -2.6277 H   0  0  0  0  0  0  0  0  0  0  0  0
    2.0148   39.4342   -2.6277 H   0  0  0  0  0  0  0  0  0  0  0  0
   -0.1613   36.1310   -3.2835 H   0  0  0  0  0  0  0  0  0  0  0  0
   -1.7114   35.9417   -0.7420 H   0  0  0  0  0  0  0  0  0  0  0  0
   -2.7148   36.3518   -2.1744 H   0  0  0  0  0  0  0  0  0  0  0  0
   -1.7175   34.8577   -2.1744 H   0  0  0  0  0  0  0  0  0  0  0  0
   -1.3608   38.6837   -2.1597 H   0  0  0  0  0  0  0  0  0  0  0  0
   -0.3193   38.4794   -3.6090 H   0  0  0  0  0  0  0  0  0  0  0  0
   -1.9953   37.8330   -3.6090 H   0  0  0  0  0  0  0  0  0  0  0  0
   -3.7209   25.9927   -1.1909 H   0  0  0  0  0  0  0  0  0  0  0  0
   -4.4153   25.3270   -2.7072 H   0  0  0  0  0  0  0  0  0  0  0  0
  1  2  2  0  0  0  0
  2  3  1  0  0  0  0
  2115  1  0  0  0  0
  3 88  1  0  0  0  0
  3  4  2  0  0  0  0
  4  5  1  0  0  0  0
  5  6  2  0  0  0  0
  5  7  1  0  0  0  0
  6  1  1  0  0  0  0
  6116  1  0  0  0  0
  7 81  1  0  0  0  0
  7  8  1  0  0  0  0
  7117  1  6  0  0  0
  8  9  1  0  0  0  0
  8118  1  0  0  0  0
  9 10  2  0  0  0  0
  9 11  1  0  0  0  0
 11 12  1  0  0  0  0
 11119  1  6  0  0  0
 12 13  1  0  0  0  0
 12120  1  0  0  0  0
 13 14  2  0  0  0  0
 13 15  1  0  0  0  0
 15 16  1  0  0  0  0
 15 52  1  0  0  0  0
 15121  1  1  0  0  0
 16 17  1  0  0  0  0
 16122  1  0  0  0  0
 17 18  2  0  0  0  0
 17 19  1  0  0  0  0
 19 20  1  0  0  0  0
 19123  1  1  0  0  0
 20 21  1  0  0  0  0
 20124  1  0  0  0  0
 21 22  2  0  0  0  0
 21 23  1  0  0  0  0
 23112  1  0  0  0  0
 23 24  1  0  0  0  0
 23125  1  6  0  0  0
 24 25  1  0  0  0  0
 24126  1  0  0  0  0
 25 26  2  0  0  0  0
 25 27  1  0  0  0  0
 27 58  1  0  0  0  0
 27 28  1  0  0  0  0
 27127  1  6  0  0  0
 28 90  1  0  0  0  0
 28 29  1  0  0  0  0
 28128  1  6  0  0  0
 29 30  2  0  0  0  0
 30 31  1  0  0  0  0
 30129  1  0  0  0  0
 31 32  2  0  0  0  0
 31130  1  0  0  0  0
 32 33  1  0  0  0  0
 32 36  1  0  0  0  0
 33 34  1  0  0  0  0
 33 35  2  0  0  0  0
 35 29  1  0  0  0  0
 35131  1  0  0  0  0
 36 37  1  0  0  0  0
 37 38  2  0  0  0  0
 38 39  1  0  0  0  0
 38132  1  0  0  0  0
 39 40  2  0  0  0  0
 39 19  1  0  0  0  0
 40 41  1  0  0  0  0
 40133  1  0  0  0  0
 41 42  2  0  0  0  0
 41 43  1  0  0  0  0
 42 79  1  0  0  0  0
 42 37  1  0  0  0  0
 43 44  1  0  0  0  0
 44 45  2  0  0  0  0
 45 46  1  0  0  0  0
 45134  1  0  0  0  0
 46 47  2  0  0  0  0
 46135  1  0  0  0  0
 47 48  1  0  0  0  0
 47 51  1  0  0  0  0
 48 49  2  0  0  0  0
 48136  1  0  0  0  0
 49 50  1  0  0  0  0
 49 44  1  0  0  0  0
 51101  1  0  0  0  0
 51 11  1  0  0  0  0
 51137  1  6  0  0  0
 52 53  2  0  0  0  0
 53 54  1  0  0  0  0
 53138  1  0  0  0  0
 54 55  2  0  0  0  0
 54139  1  0  0  0  0
 55 75  1  0  0  0  0
 55 56  1  0  0  0  0
 56 57  2  0  0  0  0
 56  4  1  0  0  0  0
 57 52  1  0  0  0  0
 57140  1  0  0  0  0
 58 59  1  0  0  0  0
 58141  1  0  0  0  0
 59 60  2  0  0  0  0
 59 61  1  0  0  0  0
 61 71  1  0  0  0  0
 61 62  1  0  0  0  0
 61142  1  1  0  0  0
 62 63  1  0  0  0  0
 62 64  1  0  0  0  0
 63143  1  0  0  0  0
 63144  1  0  0  0  0
 63145  1  0  0  0  0
 64 65  2  0  0  0  0
 64 66  1  0  0  0  0
 66 67  1  0  0  0  0
 67 68  1  0  0  0  0
 67 69  1  0  0  0  0
 67 70  1  0  0  0  0
 68146  1  0  0  0  0
 68147  1  0  0  0  0
 68148  1  0  0  0  0
 69149  1  0  0  0  0
 69150  1  0  0  0  0
 69151  1  0  0  0  0
 70152  1  0  0  0  0
 70153  1  0  0  0  0
 70154  1  0  0  0  0
 71 72  1  0  0  0  0
 71155  1  0  0  0  0
 71156  1  0  0  0  0
 72 73  1  0  0  0  0
 72 74  1  0  0  0  0
 72157  1  0  0  0  0
 73158  1  0  0  0  0
 73159  1  0  0  0  0
 73160  1  0  0  0  0
 74161  1  0  0  0  0
 74162  1  0  0  0  0
 74163  1  0  0  0  0
 75 76  1  0  0  0  0
 76164  1  0  0  0  0
 76165  1  0  0  0  0
 76166  1  0  0  0  0
 77 78  1  0  0  0  0
 77167  1  0  0  0  0
 77168  1  0  0  0  0
 77169  1  0  0  0  0
 78  1  1  0  0  0  0
 79 80  1  0  0  0  0
 80170  1  0  0  0  0
 80171  1  0  0  0  0
 80172  1  0  0  0  0
 81 82  2  0  0  0  0
 81 83  1  0  0  0  0
 83 84  1  0  0  0  0
 84 85  1  0  0  0  0
 84 86  1  0  0  0  0
 84 87  1  0  0  0  0
 85173  1  0  0  0  0
 85174  1  0  0  0  0
 85175  1  0  0  0  0
 86176  1  0  0  0  0
 86177  1  0  0  0  0
 86178  1  0  0  0  0
 87179  1  0  0  0  0
 87180  1  0  0  0  0
 87181  1  0  0  0  0
 88 89  1  0  0  0  0
 89182  1  0  0  0  0
 89183  1  0  0  0  0
 89184  1  0  0  0  0
 90 91  1  0  0  0  0
 91 98  1  0  0  0  0
 91 95  1  0  0  0  0
 91 92  1  0  0  0  0
 92 93  1  0  0  0  0
 92 94  1  0  0  0  0
 92185  1  0  0  0  0
 93186  1  0  0  0  0
 93187  1  0  0  0  0
 93188  1  0  0  0  0
 94189  1  0  0  0  0
 94190  1  0  0  0  0
 94191  1  0  0  0  0
 95 96  1  0  0  0  0
 95 97  1  0  0  0  0
 95192  1  0  0  0  0
 96193  1  0  0  0  0
 96194  1  0  0  0  0
 96195  1  0  0  0  0
 97196  1  0  0  0  0
 97197  1  0  0  0  0
 97198  1  0  0  0  0
 98 99  1  0  0  0  0
 98100  1  0  0  0  0
 98199  1  0  0  0  0
 99200  1  0  0  0  0
 99201  1  0  0  0  0
 99202  1  0  0  0  0
100203  1  0  0  0  0
100204  1  0  0  0  0
100205  1  0  0  0  0
101102  1  0  0  0  0
102109  1  0  0  0  0
102106  1  0  0  0  0
102103  1  0  0  0  0
103104  1  0  0  0  0
103105  1  0  0  0  0
103206  1  0  0  0  0
104207  1  0  0  0  0
104208  1  0  0  0  0
104209  1  0  0  0  0
105210  1  0  0  0  0
105211  1  0  0  0  0
105212  1  0  0  0  0
106107  1  0  0  0  0
106108  1  0  0  0  0
106213  1  0  0  0  0
107214  1  0  0  0  0
107215  1  0  0  0  0
107216  1  0  0  0  0
108217  1  0  0  0  0
108218  1  0  0  0  0
108219  1  0  0  0  0
109110  1  0  0  0  0
109111  1  0  0  0  0
109220  1  0  0  0  0
110221  1  0  0  0  0
110222  1  0  0  0  0
110223  1  0  0  0  0
111224  1  0  0  0  0
111225  1  0  0  0  0
111226  1  0  0  0  0
112113  1  0  0  0  0
112227  1  0  0  0  0
112228  1  0  0  0  0
113114  3  0  0  0  0
M  END
$$$$
*****
 OpenBabel04182602263D

228235  0  0  1  0  0  0  0  0999 V2000
    0.9573   31.0776    6.2554 C   0  0  0  0  0  0  0  0  0  0  0  0
    1.0332   29.8911    6.9736 C   0  0  0  0  0  0  0  0  0  0  0  0
    0.6006   28.7041    6.3955 C   0  0  0  0  0  0  0  0  0  0  0  0
    0.1450   28.6427    5.0410 C   0  0  0  0  0  0  0  0  0  0  0  0
    0.1277   29.8493    4.2572 C   0  0  0  0  0  0  0  0  0  0  0  0
    0.4674   31.0507    4.9355 C   0  0  0  0  0  0  0  0  0  0  0  0
   -0.4462   29.9432    2.8060 C   0  0  2  0  0  0  0  0  0  0  0  0
   -0.1160   28.8391    1.8607 N   0  0  0  0  0  0  0  0  0  0  0  0
    0.8295   28.9615    0.8428 C   0  0  0  0  0  0  0  0  0  0  0  0
    1.3812   30.0153    0.5355 O   0  0  0  0  0  0  0  0  0  0  0  0
    1.0728   27.6851   -0.0046 C   0  0  1  0  0  0  0  0  0  0  0  0
    0.7424   26.4302    0.6906 N   0  0  0  0  0  0  0  0  0  0  0  0
    1.7359   25.7200    1.3703 C   0  0  0  0  0  0  0  0  0  0  0  0
    2.9239   26.0354    1.2792 O   0  0  0  0  0  0  0  0  0  0  0  0
    1.2367   24.6211    2.3641 C   0  0  2  0  0  0  0  0  0  0  0  0
    0.6475   23.5242    1.5793 N   0  0  0  0  0  0  0  0  0  0  0  0
    0.6798   22.1548    1.8873 C   0  0  0  0  0  0  0  0  0  0  0  0
    1.5930   21.4511    3.1085 S   0  0  0  0  0  0  0  0  0  0  0  0
   -0.2124   21.3155    0.9059 C   0  0  2  0  0  0  0  0  0  0  0  0
   -0.7973   20.0422    1.2811 N   0  0  0  0  0  0  0  0  0  0  0  0
   -1.7403   19.9172    2.2694 C   0  0  0  0  0  0  0  0  0  0  0  0
   -1.8925   20.7569    3.1369 O   0  0  0  0  0  0  0  0  0  0  0  0
   -2.5273   18.6004    2.1598 C   0  0  1  0  0  0  0  0  0  0  0  0
   -1.6054   17.4552    2.2670 N   0  0  0  0  0  0  0  0  0  0  0  0
   -1.7957   16.3119    1.5130 C   0  0  0  0  0  0  0  0  0  0  0  0
   -2.7102   16.2212    0.6908 O   0  0  0  0  0  0  0  0  0  0  0  0
   -0.8440   15.1448    1.8096 C   0  0  1  0  0  0  0  0  0  0  0  0
   -0.3153   14.5103    0.4851 C   0  0  1  0  0  0  0  0  0  0  0  0
    0.5680   15.4899   -0.2745 C   0  0  0  0  0  0  0  0  0  0  0  0
   -0.0055   16.2930   -1.2767 C   0  0  0  0  0  0  0  0  0  0  0  0
    0.7311   17.2861   -1.9031 C   0  0  0  0  0  0  0  0  0  0  0  0
    2.0593   17.5272   -1.5219 C   0  0  0  0  0  0  0  0  0  0  0  0
    2.6714   16.6857   -0.5897 C   0  0  0  0  0  0  0  0  0  0  0  0
    4.3076   16.9271   -0.0895 Cl  0  0  0  0  0  0  0  0  0  0  0  0
    1.9350   15.6693    0.0222 C   0  0  0  0  0  0  0  0  0  0  0  0
    2.7349   18.6440   -1.9968 O   0  0  0  0  0  0  0  0  0  0  0  0
    2.0340   19.8282   -1.8261 C   0  0  0  0  0  0  0  0  0  0  0  0
    1.5047   20.1210   -0.5576 C   0  0  0  0  0  0  0  0  0  0  0  0
    0.5351   21.1130   -0.4092 C   0  0  0  0  0  0  0  0  0  0  0  0
    0.2235   21.9062   -1.5046 C   0  0  0  0  0  0  0  0  0  0  0  0
    0.8941   21.7487   -2.7265 C   0  0  0  0  0  0  0  0  0  0  0  0
    1.7845   20.6779   -2.9131 C   0  0  0  0  0  0  0  0  0  0  0  0
    0.6666   22.6209   -3.7770 O   0  0  0  0  0  0  0  0  0  0  0  0
    0.6449   23.9449   -3.3892 C   0  0  0  0  0  0  0  0  0  0  0  0
   -0.5930   24.5327   -3.1173 C   0  0  0  0  0  0  0  0  0  0  0  0
   -0.6551   25.7623   -2.4912 C   0  0  0  0  0  0  0  0  0  0  0  0
    0.5193   26.4784   -2.1869 C   0  0  0  0  0  0  0  0  0  0  0  0
    1.7583   25.9134   -2.5528 C   0  0  0  0  0  0  0  0  0  0  0  0
    1.8227   24.6586   -3.1454 C   0  0  0  0  0  0  0  0  0  0  0  0
    3.3770   24.0185   -3.5201 Cl  0  0  0  0  0  0  0  0  0  0  0  0
    0.4774   27.8285   -1.4428 C   0  0  1  0  0  0  0  0  0  0  0  0
    0.2344   25.2806    3.3076 C   0  0  0  0  0  0  0  0  0  0  0  0
   -1.0832   24.8359    3.4672 C   0  0  0  0  0  0  0  0  0  0  0  0
   -2.0108   25.6338    4.1267 C   0  0  0  0  0  0  0  0  0  0  0  0
   -1.6408   26.8746    4.6582 C   0  0  0  0  0  0  0  0  0  0  0  0
   -0.3137   27.3338    4.5420 C   0  0  0  0  0  0  0  0  0  0  0  0
    0.6239   26.4803    3.9387 C   0  0  0  0  0  0  0  0  0  0  0  0
    0.2136   15.5056    2.7831 N   0  0  0  0  0  0  0  0  0  0  0  0
    0.4835   14.6035    3.8161 C   0  0  0  0  0  0  0  0  0  0  0  0
   -0.2568   13.6385    4.0210 O   0  0  0  0  0  0  0  0  0  0  0  0
    1.7748   14.8880    4.6121 C   0  0  2  0  0  0  0  0  0  0  0  0
    1.5574   15.1723    6.0328 N   0  0  0  0  0  0  0  0  0  0  0  0
    0.4389   16.0363    6.3969 C   0  0  0  0  0  0  0  0  0  0  0  0
    2.5175   14.8099    6.9665 C   0  0  0  0  0  0  0  0  0  0  0  0
    3.4806   14.0976    6.7288 O   0  0  0  0  0  0  0  0  0  0  0  0
    2.2707   15.3667    8.1899 O   0  0  0  0  0  0  0  0  0  0  0  0
    1.9894   14.5531    9.3511 C   0  0  0  0  0  0  0  0  0  0  0  0
    1.1642   15.4663   10.2759 C   0  0  0  0  0  0  0  0  0  0  0  0
    3.2831   14.1668   10.0717 C   0  0  0  0  0  0  0  0  0  0  0  0
    1.1363   13.3281    9.0036 C   0  0  0  0  0  0  0  0  0  0  0  0
    2.8406   15.7941    3.9538 C   0  0  0  0  0  0  0  0  0  0  0  0
    2.7490   17.3211    4.1090 C   0  0  0  0  0  0  0  0  0  0  0  0
    4.0329   17.8209    4.7786 C   0  0  0  0  0  0  0  0  0  0  0  0
    2.5839   18.0555    2.7837 C   0  0  0  0  0  0  0  0  0  0  0  0
   -2.5925   27.6626    5.2414 O   0  0  0  0  0  0  0  0  0  0  0  0
   -3.5747   28.0394    4.2919 C   0  0  0  0  0  0  0  0  0  0  0  0
    0.6617   32.4274    8.1712 C   0  0  0  0  0  0  0  0  0  0  0  0
    1.3363   32.1956    6.9446 O   0  0  0  0  0  0  0  0  0  0  0  0
    2.2606   20.4696   -4.1738 O   0  0  0  0  0  0  0  0  0  0  0  0
    1.4644   19.5685   -4.9386 C   0  0  0  0  0  0  0  0  0  0  0  0
   -0.4816   31.3080    2.0513 C   0  0  0  0  0  0  0  0  0  0  0  0
    0.4132   32.1463    2.1451 O   0  0  0  0  0  0  0  0  0  0  0  0
   -1.6316   31.5243    1.3463 O   0  0  0  0  0  0  0  0  0  0  0  0
   -2.7470   32.2635    1.9102 C   0  0  0  0  0  0  0  0  0  0  0  0
   -3.3648   33.2697    0.9313 C   0  0  0  0  0  0  0  0  0  0  0  0
   -2.2990   32.9464    3.2029 C   0  0  0  0  0  0  0  0  0  0  0  0
   -3.8121   31.2056    2.2492 C   0  0  0  0  0  0  0  0  0  0  0  0
    0.6052   27.5493    7.1548 O   0  0  0  0  0  0  0  0  0  0  0  0
   -0.3051   27.6403    8.2478 C   0  0  0  0  0  0  0  0  0  0  0  0
    0.4059   13.3097    0.7426 O   0  0  0  0  0  0  0  0  0  0  0  0
    0.2967   11.9505   -0.2549 Si  0  0  0  0  0  0  0  0  0  0  0  0
   -1.5974   11.3241   -0.2521 C   0  0  0  0  0  0  0  0  0  0  0  0
   -1.8035   10.1483   -1.2076 C   0  0  0  0  0  0  0  0  0  0  0  0
   -2.1035   10.9560    1.1428 C   0  0  0  0  0  0  0  0  0  0  0  0
    0.8433   12.2370   -2.1206 C   0  0  0  0  0  0  0  0  0  0  0  0
   -0.1737   13.0431   -2.9190 C   0  0  0  0  0  0  0  0  0  0  0  0
    2.2427   12.8386   -2.2816 C   0  0  0  0  0  0  0  0  0  0  0  0
    1.3861   10.4756    0.4827 C   0  0  0  0  0  0  0  0  0  0  0  0
    1.5141    9.3086   -0.4979 C   0  0  0  0  0  0  0  0  0  0  0  0
    2.7801   10.9294    0.9317 C   0  0  0  0  0  0  0  0  0  0  0  0
   -0.8420   28.3953   -1.4587 O   0  0  0  0  0  0  0  0  0  0  0  0
   -1.3175   29.4652   -2.7063 Si  0  0  0  0  0  0  0  0  0  0  0  0
   -2.4841   30.8416   -1.9981 C   0  0  0  0  0  0  0  0  0  0  0  0
   -2.9369   31.9120   -2.9860 C   0  0  0  0  0  0  0  0  0  0  0  0
   -3.7148   30.2662   -1.2975 C   0  0  0  0  0  0  0  0  0  0  0  0
    0.2614   30.2820   -3.5898 C   0  0  0  0  0  0  0  0  0  0  0  0
    1.1972   31.0533   -2.6650 C   0  0  0  0  0  0  0  0  0  0  0  0
    1.0615   29.2872   -4.4429 C   0  0  0  0  0  0  0  0  0  0  0  0
   -2.3240   28.4011   -4.0757 C   0  0  0  0  0  0  0  0  0  0  0  0
   -3.5450   27.6959   -3.4689 C   0  0  0  0  0  0  0  0  0  0  0  0
   -2.7611   29.1989   -5.2975 C   0  0  0  0  0  0  0  0  0  0  0  0
   -3.6578   18.5661    3.2009 C   0  0  0  0  0  0  0  0  0  0  0  0
   -3.2405   17.7473    4.3471 C   0  0  0  0  0  0  0  0  0  0  0  0
   -2.8688   17.1583    5.2774 N   0  0  0  0  0  0  0  0  0  0  0  0
    1.4349   29.8913    7.9976 H   0  0  0  0  0  0  0  0  0  0  0  0
    0.3417   32.0056    4.4041 H   0  0  0  0  0  0  0  0  0  0  0  0
   -1.4812   29.8077    3.1530 H   0  0  0  0  0  0  0  0  0  0  0  0
   -0.6105   27.9415    1.9643 H   0  0  0  0  0  0  0  0  0  0  0  0
    2.1602   27.5965   -0.1450 H   0  0  0  0  0  0  0  0  0  0  0  0
   -0.2241   26.0744    0.6760 H   0  0  0  0  0  0  0  0  0  0  0  0
    2.0484   24.1923    2.9701 H   0  0  0  0  0  0  0  0  0  0  0  0
    0.1596   23.7894    0.7118 H   0  0  0  0  0  0  0  0  0  0  0  0
   -1.1021   21.9617    0.8757 H   0  0  0  0  0  0  0  0  0  0  0  0
   -0.4909   19.1942    0.7832 H   0  0  0  0  0  0  0  0  0  0  0  0
   -3.0097   18.5320    1.1736 H   0  0  0  0  0  0  0  0  0  0  0  0
   -0.8060   17.5075    2.9144 H   0  0  0  0  0  0  0  0  0  0  0  0
   -1.4157   14.3548    2.3186 H   0  0  0  0  0  0  0  0  0  0  0  0
   -1.1906   14.2681   -0.1355 H   0  0  0  0  0  0  0  0  0  0  0  0
   -1.0538   16.1306   -1.5676 H   0  0  0  0  0  0  0  0  0  0  0  0
    0.2725   17.8873   -2.7020 H   0  0  0  0  0  0  0  0  0  0  0  0
    2.4269   15.0007    0.7441 H   0  0  0  0  0  0  0  0  0  0  0  0
    1.8570   19.5647    0.3235 H   0  0  0  0  0  0  0  0  0  0  0  0
   -0.5621   22.6707   -1.4131 H   0  0  0  0  0  0  0  0  0  0  0  0
   -1.5206   24.0149   -3.4026 H   0  0  0  0  0  0  0  0  0  0  0  0
   -1.6343   26.1879   -2.2267 H   0  0  0  0  0  0  0  0  0  0  0  0
    2.6864   26.4738   -2.3665 H   0  0  0  0  0  0  0  0  0  0  0  0
    1.1174   28.5460   -1.9773 H   0  0  0  0  0  0  0  0  0  0  0  0
   -1.3845   23.8551    3.0707 H   0  0  0  0  0  0  0  0  0  0  0  0
   -3.0489   25.2856    4.2322 H   0  0  0  0  0  0  0  0  0  0  0  0
    1.6891   26.7542    3.9588 H   0  0  0  0  0  0  0  0  0  0  0  0
    0.7325   16.3916    2.7012 H   0  0  0  0  0  0  0  0  0  0  0  0
    2.2634   13.9036    4.5656 H   0  0  0  0  0  0  0  0  0  0  0  0
    0.3627   16.0952    7.4927 H   0  0  0  0  0  0  0  0  0  0  0  0
    0.6046   17.0432    5.9862 H   0  0  0  0  0  0  0  0  0  0  0  0
   -0.4935   15.6217    5.9862 H   0  0  0  0  0  0  0  0  0  0  0  0
    1.3853   15.2216   11.3253 H   0  0  0  0  0  0  0  0  0  0  0  0
    1.4252   16.5171   10.0816 H   0  0  0  0  0  0  0  0  0  0  0  0
    0.0924   15.3127   10.0816 H   0  0  0  0  0  0  0  0  0  0  0  0
    3.1251   14.2140   11.1593 H   0  0  0  0  0  0  0  0  0  0  0  0
    3.5700   13.1438    9.7869 H   0  0  0  0  0  0  0  0  0  0  0  0
    4.0840   14.8650    9.7869 H   0  0  0  0  0  0  0  0  0  0  0  0
    0.7978   12.8421    9.9306 H   0  0  0  0  0  0  0  0  0  0  0  0
    0.2624   13.6448    8.4154 H   0  0  0  0  0  0  0  0  0  0  0  0
    1.7364   12.6182    8.4154 H   0  0  0  0  0  0  0  0  0  0  0  0
    3.8145   15.4903    4.3652 H   0  0  0  0  0  0  0  0  0  0  0  0
    2.6775   15.6377    2.8773 H   0  0  0  0  0  0  0  0  0  0  0  0
    1.8543   17.5308    4.7135 H   0  0  0  0  0  0  0  0  0  0  0  0
    3.9178   17.7761    5.8716 H   0  0  0  0  0  0  0  0  0  0  0  0
    4.8773   17.1858    4.4725 H   0  0  0  0  0  0  0  0  0  0  0  0
    4.2256   18.8597    4.4725 H   0  0  0  0  0  0  0  0  0  0  0  0
    2.3464   19.1120    2.9771 H   0  0  0  0  0  0  0  0  0  0  0  0
    3.5194   17.9893    2.2088 H   0  0  0  0  0  0  0  0  0  0  0  0
    1.7668   17.5953    2.2088 H   0  0  0  0  0  0  0  0  0  0  0  0
   -4.4776   28.3858    4.8161 H   0  0  0  0  0  0  0  0  0  0  0  0
   -3.1828   28.8510    3.6613 H   0  0  0  0  0  0  0  0  0  0  0  0
   -3.8261   27.1739    3.6613 H   0  0  0  0  0  0  0  0  0  0  0  0
    1.3352   32.1960    9.0095 H   0  0  0  0  0  0  0  0  0  0  0  0
    0.3553   33.4824    8.2275 H   0  0  0  0  0  0  0  0  0  0  0  0
   -0.2284   31.7836    8.2275 H   0  0  0  0  0  0  0  0  0  0  0  0
    0.8910   18.9196   -4.2603 H   0  0  0  0  0  0  0  0  0  0  0  0
    0.7708   20.1399   -5.5729 H   0  0  0  0  0  0  0  0  0  0  0  0
    2.1169   18.9505   -5.5729 H   0  0  0  0  0  0  0  0  0  0  0  0
   -3.8588   34.0743    1.4957 H   0  0  0  0  0  0  0  0  0  0  0  0
   -2.5739   33.6982    0.2981 H   0  0  0  0  0  0  0  0  0  0  0  0
   -4.1047   32.7583    0.2981 H   0  0  0  0  0  0  0  0  0  0  0  0
   -2.6725   32.3771    4.0668 H   0  0  0  0  0  0  0  0  0  0  0  0
   -1.2001   32.9840    3.2359 H   0  0  0  0  0  0  0  0  0  0  0  0
   -2.7021   33.9694    3.2359 H   0  0  0  0  0  0  0  0  0  0  0  0
   -3.9038   31.1145    3.3416 H   0  0  0  0  0  0  0  0  0  0  0  0
   -4.7798   31.5103    1.8242 H   0  0  0  0  0  0  0  0  0  0  0  0
   -3.5140   30.2358    1.8242 H   0  0  0  0  0  0  0  0  0  0  0  0
    0.2521   27.5846    9.1946 H   0  0  0  0  0  0  0  0  0  0  0  0
   -0.8456   28.5970    8.1962 H   0  0  0  0  0  0  0  0  0  0  0  0
   -1.0243   26.8096    8.1962 H   0  0  0  0  0  0  0  0  0  0  0  0
   -2.1922   12.1799   -0.6040 H   0  0  0  0  0  0  0  0  0  0  0  0
   -1.9648    9.2280   -0.6271 H   0  0  0  0  0  0  0  0  0  0  0  0
   -2.6816   10.3406   -1.8416 H   0  0  0  0  0  0  0  0  0  0  0  0
   -0.9123   10.0304   -1.8416 H   0  0  0  0  0  0  0  0  0  0  0  0
   -1.4596   11.4243    1.9019 H   0  0  0  0  0  0  0  0  0  0  0  0
   -3.1358   11.3158    1.2651 H   0  0  0  0  0  0  0  0  0  0  0  0
   -2.0792    9.8631    1.2651 H   0  0  0  0  0  0  0  0  0  0  0  0
    0.8852   11.2209   -2.5400 H   0  0  0  0  0  0  0  0  0  0  0  0
   -0.8443   13.5747   -2.2278 H   0  0  0  0  0  0  0  0  0  0  0  0
    0.3524   13.7722   -3.5528 H   0  0  0  0  0  0  0  0  0  0  0  0
   -0.7634   12.3644   -3.5528 H   0  0  0  0  0  0  0  0  0  0  0  0
    2.6778   13.0257   -1.2888 H   0  0  0  0  0  0  0  0  0  0  0  0
    2.8823   12.1360   -2.8358 H   0  0  0  0  0  0  0  0  0  0  0  0
    2.1729   13.7862   -2.8358 H   0  0  0  0  0  0  0  0  0  0  0  0
    0.8407   10.1307    1.3735 H   0  0  0  0  0  0  0  0  0  0  0  0
    1.6173    8.3680    0.0630 H   0  0  0  0  0  0  0  0  0  0  0  0
    0.6157    9.2614   -1.1309 H   0  0  0  0  0  0  0  0  0  0  0  0
    2.4013    9.4572   -1.1309 H   0  0  0  0  0  0  0  0  0  0  0  0
    2.8247   10.9439    2.0307 H   0  0  0  0  0  0  0  0  0  0  0  0
    3.5359   10.2309    0.5433 H   0  0  0  0  0  0  0  0  0  0  0  0
    2.9799   11.9390    0.5433 H   0  0  0  0  0  0  0  0  0  0  0  0
   -1.8293   31.3454   -1.2719 H   0  0  0  0  0  0  0  0  0  0  0  0
   -3.3074   32.7879   -2.4333 H   0  0  0  0  0  0  0  0  0  0  0  0
   -2.0877   32.2099   -3.6186 H   0  0  0  0  0  0  0  0  0  0  0  0
   -3.7421   31.5101   -3.6186 H   0  0  0  0  0  0  0  0  0  0  0  0
   -3.5794   30.3295   -0.2077 H   0  0  0  0  0  0  0  0  0  0  0  0
   -4.6057   30.8411   -1.5903 H   0  0  0  0  0  0  0  0  0  0  0  0
   -3.8449   29.2139   -1.5903 H   0  0  0  0  0  0  0  0  0  0  0  0
   -0.1955   31.0274   -4.2574 H   0  0  0  0  0  0  0  0  0  0  0  0
    0.9369   30.8388   -1.6180 H   0  0  0  0  0  0  0  0  0  0  0  0
    2.2361   30.7457   -2.8550 H   0  0  0  0  0  0  0  0  0  0  0  0
    1.0936   32.1318   -2.8550 H   0  0  0  0  0  0  0  0  0  0  0  0
    1.6137   28.6006   -3.7843 H   0  0  0  0  0  0  0  0  0  0  0  0
    0.3721   28.7113   -5.0778 H   0  0  0  0  0  0  0  0  0  0  0  0
    1.7719   29.8370   -5.0778 H   0  0  0  0  0  0  0  0  0  0  0  0
   -1.5951   27.6538   -4.4225 H   0  0  0  0  0  0  0  0  0  0  0  0
   -3.4816   27.7325   -2.3713 H   0  0  0  0  0  0  0  0  0  0  0  0
   -4.4634   28.2027   -3.8003 H   0  0  0  0  0  0  0  0  0  0  0  0
   -3.5650   26.6472   -3.8003 H   0  0  0  0  0  0  0  0  0  0  0  0
   -3.2660   30.1205   -4.9722 H   0  0  0  0  0  0  0  0  0  0  0  0
   -1.8788   29.4577   -5.9013 H   0  0  0  0  0  0  0  0  0  0  0  0
   -3.4541   28.5946   -5.9013 H   0  0  0  0  0  0  0  0  0  0  0  0
   -3.8751   19.5895    3.5406 H   0  0  0  0  0  0  0  0  0  0  0  0
   -4.5613   18.1315    2.7483 H   0  0  0  0  0  0  0  0  0  0  0  0
  1  2  2  0  0  0  0
  2  3  1  0  0  0  0
  2115  1  0  0  0  0
  3 88  1  0  0  0  0
  3  4  2  0  0  0  0
  4  5  1  0  0  0  0
  5  6  2  0  0  0  0
  5  7  1  0  0  0  0
  6  1  1  0  0  0  0
  6116  1  0  0  0  0
  7 81  1  0  0  0  0
  7  8  1  0  0  0  0
  7117  1  1  0  0  0
  8  9  1  0  0  0  0
  8118  1  0  0  0  0
  9 10  2  0  0  0  0
  9 11  1  0  0  0  0
 11 12  1  0  0  0  0
 11119  1  6  0  0  0
 12 13  1  0  0  0  0
 12120  1  0  0  0  0
 13 14  2  0  0  0  0
 13 15  1  0  0  0  0
 15 16  1  0  0  0  0
 15 52  1  0  0  0  0
 15121  1  1  0  0  0
 16 17  1  0  0  0  0
 16122  1  0  0  0  0
 17 18  2  0  0  0  0
 17 19  1  0  0  0  0
 19 20  1  0  0  0  0
 19123  1  6  0  0  0
 20 21  1  0  0  0  0
 20124  1  0  0  0  0
 21 22  2  0  0  0  0
 21 23  1  0  0  0  0
 23112  1  0  0  0  0
 23 24  1  0  0  0  0
 23125  1  6  0  0  0
 24 25  1  0  0  0  0
 24126  1  0  0  0  0
 25 26  2  0  0  0  0
 25 27  1  0  0  0  0
 27 58  1  0  0  0  0
 27 28  1  0  0  0  0
 27127  1  1  0  0  0
 28 90  1  0  0  0  0
 28 29  1  0  0  0  0
 28128  1  6  0  0  0
 29 30  2  0  0  0  0
 30 31  1  0  0  0  0
 30129  1  0  0  0  0
 31 32  2  0  0  0  0
 31130  1  0  0  0  0
 32 33  1  0  0  0  0
 32 36  1  0  0  0  0
 33 34  1  0  0  0  0
 33 35  2  0  0  0  0
 35 29  1  0  0  0  0
 35131  1  0  0  0  0
 36 37  1  0  0  0  0
 37 38  2  0  0  0  0
 38 39  1  0  0  0  0
 38132  1  0  0  0  0
 39 40  2  0  0  0  0
 39 19  1  0  0  0  0
 40 41  1  0  0  0  0
 40133  1  0  0  0  0
 41 42  2  0  0  0  0
 41 43  1  0  0  0  0
 42 79  1  0  0  0  0
 42 37  1  0  0  0  0
 43 44  1  0  0  0  0
 44 45  2  0  0  0  0
 45 46  1  0  0  0  0
 45134  1  0  0  0  0
 46 47  2  0  0  0  0
 46135  1  0  0  0  0
 47 48  1  0  0  0  0
 47 51  1  0  0  0  0
 48 49  2  0  0  0  0
 48136  1  0  0  0  0
 49 50  1  0  0  0  0
 49 44  1  0  0  0  0
 51101  1  0  0  0  0
 51 11  1  0  0  0  0
 51137  1  6  0  0  0
 52 53  2  0  0  0  0
 53 54  1  0  0  0  0
 53138  1  0  0  0  0
 54 55  2  0  0  0  0
 54139  1  0  0  0  0
 55 75  1  0  0  0  0
 55 56  1  0  0  0  0
 56 57  2  0  0  0  0
 56  4  1  0  0  0  0
 57 52  1  0  0  0  0
 57140  1  0  0  0  0
 58 59  1  0  0  0  0
 58141  1  0  0  0  0
 59 60  2  0  0  0  0
 59 61  1  0  0  0  0
 61 71  1  0  0  0  0
 61 62  1  0  0  0  0
 61142  1  1  0  0  0
 62 63  1  0  0  0  0
 62 64  1  0  0  0  0
 63143  1  0  0  0  0
 63144  1  0  0  0  0
 63145  1  0  0  0  0
 64 65  2  0  0  0  0
 64 66  1  0  0  0  0
 66 67  1  0  0  0  0
 67 68  1  0  0  0  0
 67 69  1  0  0  0  0
 67 70  1  0  0  0  0
 68146  1  0  0  0  0
 68147  1  0  0  0  0
 68148  1  0  0  0  0
 69149  1  0  0  0  0
 69150  1  0  0  0  0
 69151  1  0  0  0  0
 70152  1  0  0  0  0
 70153  1  0  0  0  0
 70154  1  0  0  0  0
 71 72  1  0  0  0  0
 71155  1  0  0  0  0
 71156  1  0  0  0  0
 72 73  1  0  0  0  0
 72 74  1  0  0  0  0
 72157  1  0  0  0  0
 73158  1  0  0  0  0
 73159  1  0  0  0  0
 73160  1  0  0  0  0
 74161  1  0  0  0  0
 74162  1  0  0  0  0
 74163  1  0  0  0  0
 75 76  1  0  0  0  0
 76164  1  0  0  0  0
 76165  1  0  0  0  0
 76166  1  0  0  0  0
 77 78  1  0  0  0  0
 77167  1  0  0  0  0
 77168  1  0  0  0  0
 77169  1  0  0  0  0
 78  1  1  0  0  0  0
 79 80  1  0  0  0  0
 80170  1  0  0  0  0
 80171  1  0  0  0  0
 80172  1  0  0  0  0
 81 82  2  0  0  0  0
 81 83  1  0  0  0  0
 83 84  1  0  0  0  0
 84 85  1  0  0  0  0
 84 86  1  0  0  0  0
 84 87  1  0  0  0  0
 85173  1  0  0  0  0
 85174  1  0  0  0  0
 85175  1  0  0  0  0
 86176  1  0  0  0  0
 86177  1  0  0  0  0
 86178  1  0  0  0  0
 87179  1  0  0  0  0
 87180  1  0  0  0  0
 87181  1  0  0  0  0
 88 89  1  0  0  0  0
 89182  1  0  0  0  0
 89183  1  0  0  0  0
 89184  1  0  0  0  0
 90 91  1  0  0  0  0
 91 98  1  0  0  0  0
 91 95  1  0  0  0  0
 91 92  1  0  0  0  0
 92 93  1  0  0  0  0
 92 94  1  0  0  0  0
 92185  1  0  0  0  0
 93186  1  0  0  0  0
 93187  1  0  0  0  0
 93188  1  0  0  0  0
 94189  1  0  0  0  0
 94190  1  0  0  0  0
 94191  1  0  0  0  0
 95 96  1  0  0  0  0
 95 97  1  0  0  0  0
 95192  1  0  0  0  0
 96193  1  0  0  0  0
 96194  1  0  0  0  0
 96195  1  0  0  0  0
 97196  1  0  0  0  0
 97197  1  0  0  0  0
 97198  1  0  0  0  0
 98 99  1  0  0  0  0
 98100  1  0  0  0  0
 98199  1  0  0  0  0
 99200  1  0  0  0  0
 99201  1  0  0  0  0
 99202  1  0  0  0  0
100203  1  0  0  0  0
100204  1  0  0  0  0
100205  1  0  0  0  0
101102  1  0  0  0  0
102109  1  0  0  0  0
102106  1  0  0  0  0
102103  1  0  0  0  0
103104  1  0  0  0  0
103105  1  0  0  0  0
103206  1  0  0  0  0
104207  1  0  0  0  0
104208  1  0  0  0  0
104209  1  0  0  0  0
105210  1  0  0  0  0
105211  1  0  0  0  0
105212  1  0  0  0  0
106107  1  0  0  0  0
106108  1  0  0  0  0
106213  1  0  0  0  0
107214  1  0  0  0  0
107215  1  0  0  0  0
107216  1  0  0  0  0
108217  1  0  0  0  0
108218  1  0  0  0  0
108219  1  0  0  0  0
109110  1  0  0  0  0
109111  1  0  0  0  0
109220  1  0  0  0  0
110221  1  0  0  0  0
110222  1  0  0  0  0
110223  1  0  0  0  0
111224  1  0  0  0  0
111225  1  0  0  0  0
111226  1  0  0  0  0
112113  1  0  0  0  0
112227  1  0  0  0  0
112228  1  0  0  0  0
113114  3  0  0  0  0
M  END
$$$$
*****
 OpenBabel04182602263D

228235  0  0  1  0  0  0  0  0999 V2000
    2.7464   32.4364    2.3506 C   0  0  0  0  0  0  0  0  0  0  0  0
    2.7169   31.4987    3.3751 C   0  0  0  0  0  0  0  0  0  0  0  0
    2.1456   30.2516    3.1546 C   0  0  0  0  0  0  0  0  0  0  0  0
    1.6484   29.8618    1.8713 C   0  0  0  0  0  0  0  0  0  0  0  0
    1.7365   30.7938    0.7784 C   0  0  0  0  0  0  0  0  0  0  0  0
    2.2197   32.0929    1.0906 C   0  0  0  0  0  0  0  0  0  0  0  0
    1.1354   30.5378   -0.6419 C   0  0  2  0  0  0  0  0  0  0  0  0
    1.3209   29.1833   -1.2357 N   0  0  0  0  0  0  0  0  0  0  0  0
    2.2453   28.9107   -2.2438 C   0  0  0  0  0  0  0  0  0  0  0  0
    2.8961   29.7689   -2.8348 O   0  0  0  0  0  0  0  0  0  0  0  0
    2.3288   27.4290   -2.6954 C   0  0  1  0  0  0  0  0  0  0  0  0
    1.8876   26.4640   -1.6749 N   0  0  0  0  0  0  0  0  0  0  0  0
    2.8193   25.8697   -0.8192 C   0  0  0  0  0  0  0  0  0  0  0  0
    4.0309   26.0153   -0.9921 O   0  0  0  0  0  0  0  0  0  0  0  0
    2.2350   25.1558    0.4431 C   0  0  2  0  0  0  0  0  0  0  0  0
    1.5118   23.9535   -0.0016 N   0  0  0  0  0  0  0  0  0  0  0  0
    1.4082   22.7310    0.6809 C   0  0  0  0  0  0  0  0  0  0  0  0
    2.2759   22.3039    2.0538 S   0  0  0  0  0  0  0  0  0  0  0  0
    0.4054   21.7520   -0.0261 C   0  0  2  0  0  0  0  0  0  0  0  0
   -0.2997   20.7072    0.6918 N   0  0  0  0  0  0  0  0  0  0  0  0
   -1.2227   20.9687    1.6723 C   0  0  0  0  0  0  0  0  0  0  0  0
   -1.2613   22.0298    2.2667 O   0  0  0  0  0  0  0  0  0  0  0  0
   -2.1468   19.7682    1.9369 C   0  0  1  0  0  0  0  0  0  0  0  0
   -1.3481   18.6060    2.3660 N   0  0  0  0  0  0  0  0  0  0  0  0
   -1.6788   17.3246    1.9652 C   0  0  0  0  0  0  0  0  0  0  0  0
   -2.6205   17.1067    1.1994 O   0  0  0  0  0  0  0  0  0  0  0  0
   -0.8476   16.1915    2.5824 C   0  0  1  0  0  0  0  0  0  0  0  0
   -0.4259   15.1565    1.4927 C   0  0  1  0  0  0  0  0  0  0  0  0
    0.5342   15.7807    0.4900 C   0  0  0  0  0  0  0  0  0  0  0  0
    0.0208   16.3271   -0.7001 C   0  0  0  0  0  0  0  0  0  0  0  0
    0.8402   17.0175   -1.5793 C   0  0  0  0  0  0  0  0  0  0  0  0
    2.1965   17.2098   -1.2777 C   0  0  0  0  0  0  0  0  0  0  0  0
    2.7423   16.6029   -0.1440 C   0  0  0  0  0  0  0  0  0  0  0  0
    4.4082   16.7954    0.2726 Cl  0  0  0  0  0  0  0  0  0  0  0  0
    1.9203   15.8861    0.7280 C   0  0  0  0  0  0  0  0  0  0  0  0
    2.9726   18.0675   -2.0468 O   0  0  0  0  0  0  0  0  0  0  0  0
    2.4054   19.3209   -2.2198 C   0  0  0  0  0  0  0  0  0  0  0  0
    1.9455   20.0144   -1.0873 C   0  0  0  0  0  0  0  0  0  0  0  0
    1.0905   21.1077   -1.2282 C   0  0  0  0  0  0  0  0  0  0  0  0
    0.8337   21.5899   -2.5039 C   0  0  0  0  0  0  0  0  0  0  0  0
    1.4495   21.0231   -3.6296 C   0  0  0  0  0  0  0  0  0  0  0  0
    2.2166   19.8526   -3.5033 C   0  0  0  0  0  0  0  0  0  0  0  0
    1.2860   21.5841   -4.8844 O   0  0  0  0  0  0  0  0  0  0  0  0
    1.4148   22.9578   -4.8865 C   0  0  0  0  0  0  0  0  0  0  0  0
    0.2539   23.7297   -4.7956 C   0  0  0  0  0  0  0  0  0  0  0  0
    0.3393   25.0848   -4.5425 C   0  0  0  0  0  0  0  0  0  0  0  0
    1.5906   25.7251   -4.4494 C   0  0  0  0  0  0  0  0  0  0  0  0
    2.7524   24.9486   -4.6370 C   0  0  0  0  0  0  0  0  0  0  0  0
    2.6676   23.5785   -4.8507 C   0  0  0  0  0  0  0  0  0  0  0  0
    4.1348   22.6934   -5.0247 Cl  0  0  0  0  0  0  0  0  0  0  0  0
    1.7120   27.2262   -4.1172 C   0  0  1  0  0  0  0  0  0  0  0  0
    1.3345   26.1591    1.1587 C   0  0  0  0  0  0  0  0  0  0  0  0
   -0.0177   25.9236    1.4335 C   0  0  0  0  0  0  0  0  0  0  0  0
   -0.8372   26.9708    1.8378 C   0  0  0  0  0  0  0  0  0  0  0  0
   -0.3237   28.2631    1.9982 C   0  0  0  0  0  0  0  0  0  0  0  0
    1.0406   28.5235    1.7611 C   0  0  0  0  0  0  0  0  0  0  0  0
    1.8658   27.4379    1.4263 C   0  0  0  0  0  0  0  0  0  0  0  0
    0.2689   16.6939    3.4175 N   0  0  0  0  0  0  0  0  0  0  0  0
    0.5381   16.0263    4.6156 C   0  0  0  0  0  0  0  0  0  0  0  0
   -0.2404   15.1754    5.0528 O   0  0  0  0  0  0  0  0  0  0  0  0
    1.8761   16.4017    5.2871 C   0  0  2  0  0  0  0  0  0  0  0  0
    2.1460   15.6852    6.5362 N   0  0  0  0  0  0  0  0  0  0  0  0
    3.0220   14.5190    6.4835 C   0  0  0  0  0  0  0  0  0  0  0  0
    1.4133   15.9812    7.6767 C   0  0  0  0  0  0  0  0  0  0  0  0
    0.6579   16.9344    7.7865 O   0  0  0  0  0  0  0  0  0  0  0  0
    1.6193   15.0600    8.6649 O   0  0  0  0  0  0  0  0  0  0  0  0
    0.5267   14.3114    9.2441 C   0  0  0  0  0  0  0  0  0  0  0  0
    1.1957   13.0882    9.8970 C   0  0  0  0  0  0  0  0  0  0  0  0
   -0.4343   13.8223    8.1580 C   0  0  0  0  0  0  0  0  0  0  0  0
   -0.1970   15.1022   10.3395 C   0  0  0  0  0  0  0  0  0  0  0  0
    2.2627   17.8979    5.3338 C   0  0  0  0  0  0  0  0  0  0  0  0
    3.5510   18.3777    4.6452 C   0  0  0  0  0  0  0  0  0  0  0  0
    3.2831   18.5014    3.1420 C   0  0  0  0  0  0  0  0  0  0  0  0
    4.0439   19.7266    5.1555 C   0  0  0  0  0  0  0  0  0  0  0  0
   -1.1705   29.2821    2.3321 O   0  0  0  0  0  0  0  0  0  0  0  0
   -2.1343   28.8386    3.2716 C   0  0  0  0  0  0  0  0  0  0  0  0
    4.6755   33.7381    2.7551 C   0  0  0  0  0  0  0  0  0  0  0  0
    3.2602   33.6548    2.6970 O   0  0  0  0  0  0  0  0  0  0  0  0
    2.6327   19.2476   -4.6523 O   0  0  0  0  0  0  0  0  0  0  0  0
    1.7456   18.2310   -5.1109 C   0  0  0  0  0  0  0  0  0  0  0  0
    1.2230   31.6307   -1.7516 C   0  0  0  0  0  0  0  0  0  0  0  0
    0.4162   31.7097   -2.6762 O   0  0  0  0  0  0  0  0  0  0  0  0
    2.3214   32.4370   -1.6529 O   0  0  0  0  0  0  0  0  0  0  0  0
    2.2424   33.8689   -1.8815 C   0  0  0  0  0  0  0  0  0  0  0  0
    3.2828   34.6682   -1.0872 C   0  0  0  0  0  0  0  0  0  0  0  0
    0.8223   34.3508   -1.5830 C   0  0  0  0  0  0  0  0  0  0  0  0
    2.5290   34.0622   -3.3812 C   0  0  0  0  0  0  0  0  0  0  0  0
    2.0497   29.3635    4.2092 O   0  0  0  0  0  0  0  0  0  0  0  0
    1.0335   29.7544    5.1291 C   0  0  0  0  0  0  0  0  0  0  0  0
    0.1717   14.0056    2.0811 O   0  0  0  0  0  0  0  0  0  0  0  0
   -0.2925   12.4320    1.6776 Si  0  0  0  0  0  0  0  0  0  0  0  0
   -0.2098   12.2458   -0.3069 C   0  0  0  0  0  0  0  0  0  0  0  0
    1.2115   12.4484   -0.8331 C   0  0  0  0  0  0  0  0  0  0  0  0
   -0.7642   10.9112   -0.8060 C   0  0  0  0  0  0  0  0  0  0  0  0
    0.8039   11.0077    2.4718 C   0  0  0  0  0  0  0  0  0  0  0  0
    0.3100    9.6111    2.1153 C   0  0  0  0  0  0  0  0  0  0  0  0
    2.3029   11.1313    2.1823 C   0  0  0  0  0  0  0  0  0  0  0  0
   -2.1728   12.1216    2.2016 C   0  0  0  0  0  0  0  0  0  0  0  0
   -2.4064   12.3851    3.6902 C   0  0  0  0  0  0  0  0  0  0  0  0
   -3.1676   12.9389    1.3691 C   0  0  0  0  0  0  0  0  0  0  0  0
    0.4597   27.9060   -4.2966 O   0  0  0  0  0  0  0  0  0  0  0  0
    0.1340   28.7700   -5.7370 Si  0  0  0  0  0  0  0  0  0  0  0  0
   -0.9419   30.3349   -5.3491 C   0  0  0  0  0  0  0  0  0  0  0  0
   -1.4424   31.1219   -6.5560 C   0  0  0  0  0  0  0  0  0  0  0  0
   -2.1294   30.0213   -4.4391 C   0  0  0  0  0  0  0  0  0  0  0  0
    1.8150   29.2944   -6.6533 C   0  0  0  0  0  0  0  0  0  0  0  0
    1.6590   29.7014   -8.1149 C   0  0  0  0  0  0  0  0  0  0  0  0
    2.6157   30.3591   -5.8898 C   0  0  0  0  0  0  0  0  0  0  0  0
   -0.8966   27.5589   -6.9583 C   0  0  0  0  0  0  0  0  0  0  0  0
    0.0001   26.4854   -7.5908 C   0  0  0  0  0  0  0  0  0  0  0  0
   -2.1020   26.8886   -6.3116 C   0  0  0  0  0  0  0  0  0  0  0  0
   -3.2452   20.1514    2.9418 C   0  0  0  0  0  0  0  0  0  0  0  0
   -2.8629   19.6877    4.2824 C   0  0  0  0  0  0  0  0  0  0  0  0
   -2.5753   19.2502    5.3199 N   0  0  0  0  0  0  0  0  0  0  0  0
    3.1448   31.7430    4.3586 H   0  0  0  0  0  0  0  0  0  0  0  0
    2.1805   32.8676    0.3106 H   0  0  0  0  0  0  0  0  0  0  0  0
    0.1020   30.6190   -0.2739 H   0  0  0  0  0  0  0  0  0  0  0  0
    0.7376   28.4105   -0.8842 H   0  0  0  0  0  0  0  0  0  0  0  0
    3.3964   27.1865   -2.8020 H   0  0  0  0  0  0  0  0  0  0  0  0
    0.8890   26.2260   -1.5912 H   0  0  0  0  0  0  0  0  0  0  0  0
    3.0136   24.8289    1.1480 H   0  0  0  0  0  0  0  0  0  0  0  0
    1.0305   24.0156   -0.9101 H   0  0  0  0  0  0  0  0  0  0  0  0
   -0.4118   22.4565   -0.2403 H   0  0  0  0  0  0  0  0  0  0  0  0
   -0.0984   19.7253    0.4548 H   0  0  0  0  0  0  0  0  0  0  0  0
   -2.6611   19.4782    1.0088 H   0  0  0  0  0  0  0  0  0  0  0  0
   -0.5299   18.7508    2.9746 H   0  0  0  0  0  0  0  0  0  0  0  0
   -1.4850   15.6438    3.2922 H   0  0  0  0  0  0  0  0  0  0  0  0
   -1.3389   14.8465    0.9632 H   0  0  0  0  0  0  0  0  0  0  0  0
   -1.0465   16.2047   -0.9365 H   0  0  0  0  0  0  0  0  0  0  0  0
    0.4254   17.4160   -2.5169 H   0  0  0  0  0  0  0  0  0  0  0  0
    2.3590   15.3980    1.6108 H   0  0  0  0  0  0  0  0  0  0  0  0
    2.2616   19.6933   -0.0838 H   0  0  0  0  0  0  0  0  0  0  0  0
    0.1359   22.4302   -2.6344 H   0  0  0  0  0  0  0  0  0  0  0  0
   -0.7308   23.2570   -4.9259 H   0  0  0  0  0  0  0  0  0  0  0  0
   -0.5818   25.6717   -4.4119 H   0  0  0  0  0  0  0  0  0  0  0  0
    3.7392   25.4341   -4.6138 H   0  0  0  0  0  0  0  0  0  0  0  0
    2.4089   27.6902   -4.8307 H   0  0  0  0  0  0  0  0  0  0  0  0
   -0.4317   24.9098    1.3295 H   0  0  0  0  0  0  0  0  0  0  0  0
   -1.9029   26.7817    2.0342 H   0  0  0  0  0  0  0  0  0  0  0  0
    2.9540   27.5886    1.3713 H   0  0  0  0  0  0  0  0  0  0  0  0
    0.8279   17.5080    3.1247 H   0  0  0  0  0  0  0  0  0  0  0  0
    2.5911   16.0126    4.5472 H   0  0  0  0  0  0  0  0  0  0  0  0
    3.2646   14.1961    7.5067 H   0  0  0  0  0  0  0  0  0  0  0  0
    2.5127   13.7016    5.9521 H   0  0  0  0  0  0  0  0  0  0  0  0
    3.9489   14.7804    5.9521 H   0  0  0  0  0  0  0  0  0  0  0  0
    1.1440   13.1828   10.9917 H   0  0  0  0  0  0  0  0  0  0  0  0
    0.6726   12.1730    9.5829 H   0  0  0  0  0  0  0  0  0  0  0  0
    2.2486   13.0349    9.5829 H   0  0  0  0  0  0  0  0  0  0  0  0
   -1.3204   13.3713    8.6285 H   0  0  0  0  0  0  0  0  0  0  0  0
   -0.7440   14.6725    7.5324 H   0  0  0  0  0  0  0  0  0  0  0  0
    0.0708   13.0716    7.5324 H   0  0  0  0  0  0  0  0  0  0  0  0
    0.1303   14.7446   11.3269 H   0  0  0  0  0  0  0  0  0  0  0  0
    0.0422   16.1711   10.2389 H   0  0  0  0  0  0  0  0  0  0  0  0
   -1.2829   14.9584   10.2389 H   0  0  0  0  0  0  0  0  0  0  0  0
    1.4315   18.4557    4.8778 H   0  0  0  0  0  0  0  0  0  0  0  0
    2.4633   18.0755    6.4007 H   0  0  0  0  0  0  0  0  0  0  0  0
    4.3323   17.6368    4.8703 H   0  0  0  0  0  0  0  0  0  0  0  0
    2.2950   18.9576    2.9820 H   0  0  0  0  0  0  0  0  0  0  0  0
    4.0575   19.1331    2.6823 H   0  0  0  0  0  0  0  0  0  0  0  0
    3.3044   17.5023    2.6823 H   0  0  0  0  0  0  0  0  0  0  0  0
    4.0433   19.7250    6.2555 H   0  0  0  0  0  0  0  0  0  0  0  0
    5.0657   19.9059    4.7897 H   0  0  0  0  0  0  0  0  0  0  0  0
    3.3785   20.5224    4.7897 H   0  0  0  0  0  0  0  0  0  0  0  0
   -1.7591   29.0113    4.2911 H   0  0  0  0  0  0  0  0  0  0  0  0
   -3.0714   29.3961    3.1265 H   0  0  0  0  0  0  0  0  0  0  0  0
   -2.3205   27.7642    3.1265 H   0  0  0  0  0  0  0  0  0  0  0  0
    4.9988   33.7571    3.8063 H   0  0  0  0  0  0  0  0  0  0  0  0
    5.1152   32.8643    2.2520 H   0  0  0  0  0  0  0  0  0  0  0  0
    5.0097   34.6575    2.2520 H   0  0  0  0  0  0  0  0  0  0  0  0
    1.2979   17.7180   -4.2470 H   0  0  0  0  0  0  0  0  0  0  0  0
    0.9503   18.6857   -5.7199 H   0  0  0  0  0  0  0  0  0  0  0  0
    2.3038   17.5046   -5.7199 H   0  0  0  0  0  0  0  0  0  0  0  0
    3.1056   34.5321   -0.0101 H   0  0  0  0  0  0  0  0  0  0  0  0
    4.2917   34.3107   -1.3409 H   0  0  0  0  0  0  0  0  0  0  0  0
    3.1973   35.7351   -1.3409 H   0  0  0  0  0  0  0  0  0  0  0  0
    0.6735   34.4013   -0.4943 H   0  0  0  0  0  0  0  0  0  0  0  0
    0.6745   35.3494   -2.0200 H   0  0  0  0  0  0  0  0  0  0  0  0
    0.0973   33.6484   -2.0200 H   0  0  0  0  0  0  0  0  0  0  0  0
    3.4351   34.6733   -3.5055 H   0  0  0  0  0  0  0  0  0  0  0  0
    2.6806   33.0811   -3.8550 H   0  0  0  0  0  0  0  0  0  0  0  0
    1.6762   34.5703   -3.8550 H   0  0  0  0  0  0  0  0  0  0  0  0
    1.3968   29.6147    6.1579 H   0  0  0  0  0  0  0  0  0  0  0  0
    0.7822   30.8134    4.9696 H   0  0  0  0  0  0  0  0  0  0  0  0
    0.1373   29.1368    4.9696 H   0  0  0  0  0  0  0  0  0  0  0  0
   -0.8561   13.0416   -0.7056 H   0  0  0  0  0  0  0  0  0  0  0  0
    1.9056   12.5473    0.0145 H   0  0  0  0  0  0  0  0  0  0  0  0
    1.5024   11.5826   -1.4462 H   0  0  0  0  0  0  0  0  0  0  0  0
    1.2489   13.3610   -1.4462 H   0  0  0  0  0  0  0  0  0  0  0  0
   -1.0270   10.2785    0.0546 H   0  0  0  0  0  0  0  0  0  0  0  0
   -1.6616   11.0920   -1.4158 H   0  0  0  0  0  0  0  0  0  0  0  0
   -0.0028   10.4029   -1.4158 H   0  0  0  0  0  0  0  0  0  0  0  0
    0.6775   11.1532    3.5548 H   0  0  0  0  0  0  0  0  0  0  0  0
    0.1102    9.0462    3.0378 H   0  0  0  0  0  0  0  0  0  0  0  0
   -0.6152    9.6888    1.5254 H   0  0  0  0  0  0  0  0  0  0  0  0
    1.0783    9.0899    1.5254 H   0  0  0  0  0  0  0  0  0  0  0  0
    2.8571   11.1770    3.1314 H   0  0  0  0  0  0  0  0  0  0  0  0
    2.6379   10.2577    1.6038 H   0  0  0  0  0  0  0  0  0  0  0  0
    2.4903   12.0479    1.6038 H   0  0  0  0  0  0  0  0  0  0  0  0
   -2.3578   11.0566    1.9978 H   0  0  0  0  0  0  0  0  0  0  0  0
   -1.7929   11.6931    4.2858 H   0  0  0  0  0  0  0  0  0  0  0  0
   -2.1251   13.4217    3.9276 H   0  0  0  0  0  0  0  0  0  0  0  0
   -3.4692   12.2301    3.9276 H   0  0  0  0  0  0  0  0  0  0  0  0
   -3.8406   13.4918    2.0409 H   0  0  0  0  0  0  0  0  0  0  0  0
   -2.6178   13.6496    0.7346 H   0  0  0  0  0  0  0  0  0  0  0  0
   -3.7581   12.2617    0.7346 H   0  0  0  0  0  0  0  0  0  0  0  0
   -0.2219   30.9850   -4.8305 H   0  0  0  0  0  0  0  0  0  0  0  0
   -2.0031   32.0035   -6.2120 H   0  0  0  0  0  0  0  0  0  0  0  0
   -0.5847   31.4468   -7.1632 H   0  0  0  0  0  0  0  0  0  0  0  0
   -2.1004   30.4829   -7.1632 H   0  0  0  0  0  0  0  0  0  0  0  0
   -1.8173   30.1037   -3.3875 H   0  0  0  0  0  0  0  0  0  0  0  0
   -2.9420   30.7356   -4.6375 H   0  0  0  0  0  0  0  0  0  0  0  0
   -2.4834   28.9989   -4.6375 H   0  0  0  0  0  0  0  0  0  0  0  0
    2.3908   28.3571   -6.6540 H   0  0  0  0  0  0  0  0  0  0  0  0
    1.2658   30.7273   -8.1699 H   0  0  0  0  0  0  0  0  0  0  0  0
    2.6380   29.6567   -8.6145 H   0  0  0  0  0  0  0  0  0  0  0  0
    0.9607   29.0138   -8.6145 H   0  0  0  0  0  0  0  0  0  0  0  0
    2.4970   30.2012   -4.8077 H   0  0  0  0  0  0  0  0  0  0  0  0
    3.6797   30.2796   -6.1574 H   0  0  0  0  0  0  0  0  0  0  0  0
    2.2441   31.3592   -6.1574 H   0  0  0  0  0  0  0  0  0  0  0  0
   -1.2819   28.2312   -7.7390 H   0  0  0  0  0  0  0  0  0  0  0  0
    0.4882   25.9010   -6.7969 H   0  0  0  0  0  0  0  0  0  0  0  0
   -0.6120   25.8172   -8.2144 H   0  0  0  0  0  0  0  0  0  0  0  0
    0.7666   26.9687   -8.2144 H   0  0  0  0  0  0  0  0  0  0  0  0
   -2.0074   26.9412   -5.2169 H   0  0  0  0  0  0  0  0  0  0  0  0
   -3.0210   27.4052   -6.6254 H   0  0  0  0  0  0  0  0  0  0  0  0
   -2.1480   25.8353   -6.6254 H   0  0  0  0  0  0  0  0  0  0  0  0
   -3.3677   21.2445    2.9526 H   0  0  0  0  0  0  0  0  0  0  0  0
   -4.1942   19.6800    2.6466 H   0  0  0  0  0  0  0  0  0  0  0  0
  1  2  2  0  0  0  0
  2  3  1  0  0  0  0
  2115  1  0  0  0  0
  3 88  1  0  0  0  0
  3  4  2  0  0  0  0
  4  5  1  0  0  0  0
  5  6  2  0  0  0  0
  5  7  1  0  0  0  0
  6  1  1  0  0  0  0
  6116  1  0  0  0  0
  7 81  1  0  0  0  0
  7  8  1  0  0  0  0
  7117  1  1  0  0  0
  8  9  1  0  0  0  0
  8118  1  0  0  0  0
  9 10  2  0  0  0  0
  9 11  1  0  0  0  0
 11 12  1  0  0  0  0
 11119  1  6  0  0  0
 12 13  1  0  0  0  0
 12120  1  0  0  0  0
 13 14  2  0  0  0  0
 13 15  1  0  0  0  0
 15 16  1  0  0  0  0
 15 52  1  0  0  0  0
 15121  1  1  0  0  0
 16 17  1  0  0  0  0
 16122  1  0  0  0  0
 17 18  2  0  0  0  0
 17 19  1  0  0  0  0
 19 20  1  0  0  0  0
 19123  1  6  0  0  0
 20 21  1  0  0  0  0
 20124  1  0  0  0  0
 21 22  2  0  0  0  0
 21 23  1  0  0  0  0
 23112  1  0  0  0  0
 23 24  1  0  0  0  0
 23125  1  6  0  0  0
 24 25  1  0  0  0  0
 24126  1  0  0  0  0
 25 26  2  0  0  0  0
 25 27  1  0  0  0  0
 27 58  1  0  0  0  0
 27 28  1  0  0  0  0
 27127  1  1  0  0  0
 28 90  1  0  0  0  0
 28 29  1  0  0  0  0
 28128  1  6  0  0  0
 29 30  2  0  0  0  0
 30 31  1  0  0  0  0
 30129  1  0  0  0  0
 31 32  2  0  0  0  0
 31130  1  0  0  0  0
 32 33  1  0  0  0  0
 32 36  1  0  0  0  0
 33 34  1  0  0  0  0
 33 35  2  0  0  0  0
 35 29  1  0  0  0  0
 35131  1  0  0  0  0
 36 37  1  0  0  0  0
 37 38  2  0  0  0  0
 38 39  1  0  0  0  0
 38132  1  0  0  0  0
 39 40  2  0  0  0  0
 39 19  1  0  0  0  0
 40 41  1  0  0  0  0
 40133  1  0  0  0  0
 41 42  2  0  0  0  0
 41 43  1  0  0  0  0
 42 79  1  0  0  0  0
 42 37  1  0  0  0  0
 43 44  1  0  0  0  0
 44 45  2  0  0  0  0
 45 46  1  0  0  0  0
 45134  1  0  0  0  0
 46 47  2  0  0  0  0
 46135  1  0  0  0  0
 47 48  1  0  0  0  0
 47 51  1  0  0  0  0
 48 49  2  0  0  0  0
 48136  1  0  0  0  0
 49 50  1  0  0  0  0
 49 44  1  0  0  0  0
 51101  1  0  0  0  0
 51 11  1  0  0  0  0
 51137  1  6  0  0  0
 52 53  2  0  0  0  0
 53 54  1  0  0  0  0
 53138  1  0  0  0  0
 54 55  2  0  0  0  0
 54139  1  0  0  0  0
 55 75  1  0  0  0  0
 55 56  1  0  0  0  0
 56 57  2  0  0  0  0
 56  4  1  0  0  0  0
 57 52  1  0  0  0  0
 57140  1  0  0  0  0
 58 59  1  0  0  0  0
 58141  1  0  0  0  0
 59 60  2  0  0  0  0
 59 61  1  0  0  0  0
 61 71  1  0  0  0  0
 61 62  1  0  0  0  0
 61142  1  6  0  0  0
 62 63  1  0  0  0  0
 62 64  1  0  0  0  0
 63143  1  0  0  0  0
 63144  1  0  0  0  0
 63145  1  0  0  0  0
 64 65  2  0  0  0  0
 64 66  1  0  0  0  0
 66 67  1  0  0  0  0
 67 68  1  0  0  0  0
 67 69  1  0  0  0  0
 67 70  1  0  0  0  0
 68146  1  0  0  0  0
 68147  1  0  0  0  0
 68148  1  0  0  0  0
 69149  1  0  0  0  0
 69150  1  0  0  0  0
 69151  1  0  0  0  0
 70152  1  0  0  0  0
 70153  1  0  0  0  0
 70154  1  0  0  0  0
 71 72  1  0  0  0  0
 71155  1  0  0  0  0
 71156  1  0  0  0  0
 72 73  1  0  0  0  0
 72 74  1  0  0  0  0
 72157  1  0  0  0  0
 73158  1  0  0  0  0
 73159  1  0  0  0  0
 73160  1  0  0  0  0
 74161  1  0  0  0  0
 74162  1  0  0  0  0
 74163  1  0  0  0  0
 75 76  1  0  0  0  0
 76164  1  0  0  0  0
 76165  1  0  0  0  0
 76166  1  0  0  0  0
 77 78  1  0  0  0  0
 77167  1  0  0  0  0
 77168  1  0  0  0  0
 77169  1  0  0  0  0
 78  1  1  0  0  0  0
 79 80  1  0  0  0  0
 80170  1  0  0  0  0
 80171  1  0  0  0  0
 80172  1  0  0  0  0
 81 82  2  0  0  0  0
 81 83  1  0  0  0  0
 83 84  1  0  0  0  0
 84 85  1  0  0  0  0
 84 86  1  0  0  0  0
 84 87  1  0  0  0  0
 85173  1  0  0  0  0
 85174  1  0  0  0  0
 85175  1  0  0  0  0
 86176  1  0  0  0  0
 86177  1  0  0  0  0
 86178  1  0  0  0  0
 87179  1  0  0  0  0
 87180  1  0  0  0  0
 87181  1  0  0  0  0
 88 89  1  0  0  0  0
 89182  1  0  0  0  0
 89183  1  0  0  0  0
 89184  1  0  0  0  0
 90 91  1  0  0  0  0
 91 98  1  0  0  0  0
 91 95  1  0  0  0  0
 91 92  1  0  0  0  0
 92 93  1  0  0  0  0
 92 94  1  0  0  0  0
 92185  1  0  0  0  0
 93186  1  0  0  0  0
 93187  1  0  0  0  0
 93188  1  0  0  0  0
 94189  1  0  0  0  0
 94190  1  0  0  0  0
 94191  1  0  0  0  0
 95 96  1  0  0  0  0
 95 97  1  0  0  0  0
 95192  1  0  0  0  0
 96193  1  0  0  0  0
 96194  1  0  0  0  0
 96195  1  0  0  0  0
 97196  1  0  0  0  0
 97197  1  0  0  0  0
 97198  1  0  0  0  0
 98 99  1  0  0  0  0
 98100  1  0  0  0  0
 98199  1  0  0  0  0
 99200  1  0  0  0  0
 99201  1  0  0  0  0
 99202  1  0  0  0  0
100203  1  0  0  0  0
100204  1  0  0  0  0
100205  1  0  0  0  0
101102  1  0  0  0  0
102109  1  0  0  0  0
102106  1  0  0  0  0
102103  1  0  0  0  0
103104  1  0  0  0  0
103105  1  0  0  0  0
103206  1  0  0  0  0
104207  1  0  0  0  0
104208  1  0  0  0  0
104209  1  0  0  0  0
105210  1  0  0  0  0
105211  1  0  0  0  0
105212  1  0  0  0  0
106107  1  0  0  0  0
106108  1  0  0  0  0
106213  1  0  0  0  0
107214  1  0  0  0  0
107215  1  0  0  0  0
107216  1  0  0  0  0
108217  1  0  0  0  0
108218  1  0  0  0  0
108219  1  0  0  0  0
109110  1  0  0  0  0
109111  1  0  0  0  0
109220  1  0  0  0  0
110221  1  0  0  0  0
110222  1  0  0  0  0
110223  1  0  0  0  0
111224  1  0  0  0  0
111225  1  0  0  0  0
111226  1  0  0  0  0
112113  1  0  0  0  0
112227  1  0  0  0  0
112228  1  0  0  0  0
113114  3  0  0  0  0
M  END
$$$$
